/*---------------------------------------------------------------------------*\
  =========                 |
  \\      /  F ield         | OpenFOAM: The Open Source CFD Toolbox
   \\    /   O peration     | Website:  https://openfoam.org
    \\  /    A nd           | Version:  9
     \\/     M anipulation  |
\*---------------------------------------------------------------------------*/
Build  : 9-b456138dc4bc
Exec   : pimpleFoam
Date   : May 26 2022
Time   : 12:59:40
Host   : "2d0e04371871"
PID    : 127
I/O    : uncollated
Case   : //data
nProcs : 1
sigFpe : Enabling floating point exception trapping (FOAM_SIGFPE).
fileModificationChecking : Monitoring run-time modified files using timeStampMaster (fileModificationSkew 10)
allowSystemOperations : Allowing user-supplied system call operations

// * * * * * * * * * * * * * * * * * * * * * * * * * * * * * * * * * * * * * //
Create time

Create mesh for time = 0


PIMPLE: No convergence criteria found


PIMPLE: Operating solver in transient mode with 1 outer corrector
PIMPLE: Operating solver in PISO mode


Reading field p

Reading field U

Using dynamicCode for codedFixedValue ParabolicTimeDependentU_max at line 44 in "//data/0/U/boundaryField/top"
Reading/calculating face flux field phi

Selecting incompressible transport model Newtonian
Selecting turbulence model type laminar
Selecting laminar stress model Stokes
No MRF models present

No fvModels present
No fvConstraints present
Courant Number mean: 0.0818134 max: 0.136738

Starting time loop

Courant Number mean: 0.0818134 max: 0.136738
Time = 0.001

smoothSolver:  Solving for Ux, Initial residual = 1, Final residual = 3.61863e-08, No Iterations 3
smoothSolver:  Solving for Uy, Initial residual = 1, Final residual = 4.2288e-07, No Iterations 2
DICPCG:  Solving for p, Initial residual = 1, Final residual = 0.0482152, No Iterations 37
DICPCG:  Solving for p, Initial residual = 0.0569994, Final residual = 0.00250728, No Iterations 77
time step continuity errors : sum local = 0.000426413, global = 3.0961e-06, cumulative = 3.0961e-06
DICPCG:  Solving for p, Initial residual = 0.0514089, Final residual = 0.00232025, No Iterations 37
DICPCG:  Solving for p, Initial residual = 0.00491049, Final residual = 0.000207489, No Iterations 78
time step continuity errors : sum local = 8.97357e-06, global = -1.54246e-07, cumulative = 2.94186e-06
DICPCG:  Solving for p, Initial residual = 0.00303416, Final residual = 0.000131841, No Iterations 10
DICPCG:  Solving for p, Initial residual = 0.000229359, Final residual = 8.17247e-07, No Iterations 85
time step continuity errors : sum local = 3.31288e-08, global = -6.21252e-10, cumulative = 2.94123e-06
ExecutionTime = 0.26 s  ClockTime = 2 s

Courant Number mean: 0.0579988 max: 0.129623
Time = 0.002

smoothSolver:  Solving for Ux, Initial residual = 0.329945, Final residual = 9.915e-07, No Iterations 2
smoothSolver:  Solving for Uy, Initial residual = 0.951719, Final residual = 3.00641e-06, No Iterations 2
DICPCG:  Solving for p, Initial residual = 0.0134878, Final residual = 0.000612634, No Iterations 83
DICPCG:  Solving for p, Initial residual = 0.201845, Final residual = 0.00908754, No Iterations 5
time step continuity errors : sum local = 3.33227e-05, global = 5.13941e-07, cumulative = 3.45518e-06
DICPCG:  Solving for p, Initial residual = 0.029423, Final residual = 0.00140118, No Iterations 82
DICPCG:  Solving for p, Initial residual = 0.00869459, Final residual = 0.000387382, No Iterations 6
time step continuity errors : sum local = 2.30007e-06, global = -1.63792e-08, cumulative = 3.4388e-06
DICPCG:  Solving for p, Initial residual = 0.00122593, Final residual = 5.85193e-05, No Iterations 81
DICPCG:  Solving for p, Initial residual = 0.00118946, Final residual = 7.92614e-07, No Iterations 91
time step continuity errors : sum local = 4.42591e-09, global = -3.16106e-11, cumulative = 3.43876e-06
ExecutionTime = 0.31 s  ClockTime = 2 s

Courant Number mean: 0.0611097 max: 0.137203
Time = 0.003

smoothSolver:  Solving for Ux, Initial residual = 0.078681, Final residual = 2.30382e-07, No Iterations 2
smoothSolver:  Solving for Uy, Initial residual = 0.620898, Final residual = 2.3297e-06, No Iterations 2
DICPCG:  Solving for p, Initial residual = 0.0763884, Final residual = 0.00372469, No Iterations 78
DICPCG:  Solving for p, Initial residual = 0.238399, Final residual = 0.0101604, No Iterations 8
time step continuity errors : sum local = 4.78859e-06, global = 3.22166e-07, cumulative = 3.76093e-06
DICPCG:  Solving for p, Initial residual = 0.0752868, Final residual = 0.00353246, No Iterations 86
DICPCG:  Solving for p, Initial residual = 0.0169885, Final residual = 0.000791656, No Iterations 5
time step continuity errors : sum local = 4.57575e-06, global = 1.89604e-08, cumulative = 3.77989e-06
DICPCG:  Solving for p, Initial residual = 0.00178877, Final residual = 7.58012e-05, No Iterations 82
DICPCG:  Solving for p, Initial residual = 0.00118788, Final residual = 8.97543e-07, No Iterations 91
time step continuity errors : sum local = 4.91528e-09, global = -2.56206e-11, cumulative = 3.77987e-06
ExecutionTime = 0.36 s  ClockTime = 2 s

Courant Number mean: 0.0642038 max: 0.144764
Time = 0.004

smoothSolver:  Solving for Ux, Initial residual = 0.0708131, Final residual = 2.35672e-07, No Iterations 2
smoothSolver:  Solving for Uy, Initial residual = 0.5713, Final residual = 2.48136e-06, No Iterations 2
DICPCG:  Solving for p, Initial residual = 0.0715603, Final residual = 0.00262434, No Iterations 79
DICPCG:  Solving for p, Initial residual = 0.233788, Final residual = 0.0101804, No Iterations 7
time step continuity errors : sum local = 4.67601e-06, global = 1.56152e-07, cumulative = 3.93602e-06
DICPCG:  Solving for p, Initial residual = 0.0748328, Final residual = 0.00338909, No Iterations 86
DICPCG:  Solving for p, Initial residual = 0.0171054, Final residual = 0.000795478, No Iterations 5
time step continuity errors : sum local = 4.55325e-06, global = 1.88577e-08, cumulative = 3.95488e-06
DICPCG:  Solving for p, Initial residual = 0.00183227, Final residual = 7.76535e-05, No Iterations 82
DICPCG:  Solving for p, Initial residual = 0.00124317, Final residual = 9.06356e-07, No Iterations 91
time step continuity errors : sum local = 4.90246e-09, global = -3.84956e-11, cumulative = 3.95484e-06
ExecutionTime = 0.39 s  ClockTime = 3 s

Courant Number mean: 0.0672797 max: 0.15237
Time = 0.005

smoothSolver:  Solving for Ux, Initial residual = 0.0685024, Final residual = 2.64848e-07, No Iterations 2
smoothSolver:  Solving for Uy, Initial residual = 0.527726, Final residual = 2.63396e-06, No Iterations 2
DICPCG:  Solving for p, Initial residual = 0.0697427, Final residual = 0.00261363, No Iterations 79
DICPCG:  Solving for p, Initial residual = 0.232997, Final residual = 0.0101127, No Iterations 7
time step continuity errors : sum local = 4.6294e-06, global = 1.38625e-07, cumulative = 4.09346e-06
DICPCG:  Solving for p, Initial residual = 0.0747557, Final residual = 0.00344557, No Iterations 86
DICPCG:  Solving for p, Initial residual = 0.017191, Final residual = 0.000800691, No Iterations 5
time step continuity errors : sum local = 4.5467e-06, global = 1.89984e-08, cumulative = 4.11246e-06
DICPCG:  Solving for p, Initial residual = 0.00187117, Final residual = 7.98161e-05, No Iterations 82
DICPCG:  Solving for p, Initial residual = 0.00129552, Final residual = 7.08619e-07, No Iterations 92
time step continuity errors : sum local = 3.79227e-09, global = -5.79095e-11, cumulative = 4.1124e-06
ExecutionTime = 0.45 s  ClockTime = 3 s

Courant Number mean: 0.0703375 max: 0.160016
Time = 0.006

smoothSolver:  Solving for Ux, Initial residual = 0.0658642, Final residual = 2.93987e-07, No Iterations 2
smoothSolver:  Solving for Uy, Initial residual = 0.489627, Final residual = 2.79098e-06, No Iterations 2
DICPCG:  Solving for p, Initial residual = 0.0678386, Final residual = 0.00261241, No Iterations 79
DICPCG:  Solving for p, Initial residual = 0.229694, Final residual = 0.0100097, No Iterations 7
time step continuity errors : sum local = 4.60907e-06, global = 1.21074e-07, cumulative = 4.23348e-06
DICPCG:  Solving for p, Initial residual = 0.0738663, Final residual = 0.00347112, No Iterations 86
DICPCG:  Solving for p, Initial residual = 0.0172571, Final residual = 0.000807413, No Iterations 5
time step continuity errors : sum local = 4.55377e-06, global = 1.85923e-08, cumulative = 4.25207e-06
DICPCG:  Solving for p, Initial residual = 0.001908, Final residual = 8.19511e-05, No Iterations 82
DICPCG:  Solving for p, Initial residual = 0.00134626, Final residual = 9.59428e-07, No Iterations 91
time step continuity errors : sum local = 5.08616e-09, global = -3.75411e-11, cumulative = 4.25203e-06
ExecutionTime = 0.5 s  ClockTime = 3 s

Courant Number mean: 0.0733771 max: 0.167696
Time = 0.007

smoothSolver:  Solving for Ux, Initial residual = 0.0624404, Final residual = 3.13252e-07, No Iterations 2
smoothSolver:  Solving for Uy, Initial residual = 0.45603, Final residual = 2.9523e-06, No Iterations 2
DICPCG:  Solving for p, Initial residual = 0.0665215, Final residual = 0.0026022, No Iterations 79
DICPCG:  Solving for p, Initial residual = 0.225514, Final residual = 0.00986024, No Iterations 7
time step continuity errors : sum local = 4.58706e-06, global = 1.0963e-07, cumulative = 4.36166e-06
DICPCG:  Solving for p, Initial residual = 0.0729359, Final residual = 0.00334414, No Iterations 86
DICPCG:  Solving for p, Initial residual = 0.0173086, Final residual = 0.000802457, No Iterations 5
time step continuity errors : sum local = 4.49668e-06, global = 1.91483e-08, cumulative = 4.38081e-06
DICPCG:  Solving for p, Initial residual = 0.00193804, Final residual = 8.35083e-05, No Iterations 82
DICPCG:  Solving for p, Initial residual = 0.00139616, Final residual = 7.55883e-07, No Iterations 92
time step continuity errors : sum local = 3.97224e-09, global = -6.34247e-11, cumulative = 4.38075e-06
ExecutionTime = 0.55 s  ClockTime = 3 s

Courant Number mean: 0.0763986 max: 0.175399
Time = 0.008

smoothSolver:  Solving for Ux, Initial residual = 0.0572411, Final residual = 3.17629e-07, No Iterations 2
smoothSolver:  Solving for Uy, Initial residual = 0.426125, Final residual = 3.1171e-06, No Iterations 2
DICPCG:  Solving for p, Initial residual = 0.065209, Final residual = 0.00257345, No Iterations 79
DICPCG:  Solving for p, Initial residual = 0.2194, Final residual = 0.0096382, No Iterations 7
time step continuity errors : sum local = 4.56797e-06, global = 9.93245e-08, cumulative = 4.48007e-06
DICPCG:  Solving for p, Initial residual = 0.0714904, Final residual = 0.00330273, No Iterations 86
DICPCG:  Solving for p, Initial residual = 0.0173547, Final residual = 0.000805755, No Iterations 5
time step continuity errors : sum local = 4.48797e-06, global = 1.91875e-08, cumulative = 4.49926e-06
DICPCG:  Solving for p, Initial residual = 0.00197166, Final residual = 8.54e-05, No Iterations 82
DICPCG:  Solving for p, Initial residual = 0.00144363, Final residual = 7.8553e-07, No Iterations 92
time step continuity errors : sum local = 4.09539e-09, global = -6.63427e-11, cumulative = 4.49919e-06
ExecutionTime = 0.59 s  ClockTime = 3 s

Courant Number mean: 0.0794017 max: 0.183116
Time = 0.009

smoothSolver:  Solving for Ux, Initial residual = 0.0512056, Final residual = 3.12518e-07, No Iterations 2
smoothSolver:  Solving for Uy, Initial residual = 0.399609, Final residual = 3.2872e-06, No Iterations 2
DICPCG:  Solving for p, Initial residual = 0.0638796, Final residual = 0.00254612, No Iterations 79
DICPCG:  Solving for p, Initial residual = 0.211773, Final residual = 0.00932259, No Iterations 7
time step continuity errors : sum local = 4.53593e-06, global = 9.07934e-08, cumulative = 4.58998e-06
DICPCG:  Solving for p, Initial residual = 0.0691068, Final residual = 0.00331306, No Iterations 86
DICPCG:  Solving for p, Initial residual = 0.0173879, Final residual = 0.000811533, No Iterations 5
time step continuity errors : sum local = 4.49706e-06, global = 1.92344e-08, cumulative = 4.60922e-06
DICPCG:  Solving for p, Initial residual = 0.00200708, Final residual = 8.71884e-05, No Iterations 82
DICPCG:  Solving for p, Initial residual = 0.00149046, Final residual = 7.71023e-07, No Iterations 92
time step continuity errors : sum local = 3.99009e-09, global = -6.96874e-11, cumulative = 4.60915e-06
ExecutionTime = 0.63 s  ClockTime = 3 s

Courant Number mean: 0.0823865 max: 0.190841
Time = 0.01

smoothSolver:  Solving for Ux, Initial residual = 0.0458124, Final residual = 3.08221e-07, No Iterations 2
smoothSolver:  Solving for Uy, Initial residual = 0.376046, Final residual = 3.46329e-06, No Iterations 2
DICPCG:  Solving for p, Initial residual = 0.0625162, Final residual = 0.00251404, No Iterations 79
DICPCG:  Solving for p, Initial residual = 0.204127, Final residual = 0.00901423, No Iterations 7
time step continuity errors : sum local = 4.50686e-06, global = 8.3296e-08, cumulative = 4.69245e-06
DICPCG:  Solving for p, Initial residual = 0.0665967, Final residual = 0.00303163, No Iterations 86
DICPCG:  Solving for p, Initial residual = 0.0173947, Final residual = 0.00081247, No Iterations 5
time step continuity errors : sum local = 4.48081e-06, global = 1.87317e-08, cumulative = 4.71118e-06
DICPCG:  Solving for p, Initial residual = 0.00203877, Final residual = 8.89054e-05, No Iterations 82
DICPCG:  Solving for p, Initial residual = 0.00153526, Final residual = 8.27925e-07, No Iterations 92
time step continuity errors : sum local = 4.25333e-09, global = -7.22359e-11, cumulative = 4.7111e-06
ExecutionTime = 0.7 s  ClockTime = 3 s

Courant Number mean: 0.085353 max: 0.198565
Time = 0.011

smoothSolver:  Solving for Ux, Initial residual = 0.0412554, Final residual = 3.05682e-07, No Iterations 2
smoothSolver:  Solving for Uy, Initial residual = 0.354972, Final residual = 3.64476e-06, No Iterations 2
DICPCG:  Solving for p, Initial residual = 0.0616084, Final residual = 0.00248779, No Iterations 79
DICPCG:  Solving for p, Initial residual = 0.19719, Final residual = 0.0087216, No Iterations 7
time step continuity errors : sum local = 4.47761e-06, global = 7.80622e-08, cumulative = 4.78917e-06
DICPCG:  Solving for p, Initial residual = 0.0642767, Final residual = 0.0030619, No Iterations 86
DICPCG:  Solving for p, Initial residual = 0.0174206, Final residual = 0.000817575, No Iterations 5
time step continuity errors : sum local = 4.48796e-06, global = 1.90963e-08, cumulative = 4.80826e-06
DICPCG:  Solving for p, Initial residual = 0.00207278, Final residual = 9.04023e-05, No Iterations 82
DICPCG:  Solving for p, Initial residual = 0.00158183, Final residual = 8.38494e-07, No Iterations 92
time step continuity errors : sum local = 4.27676e-09, global = -7.44339e-11, cumulative = 4.80819e-06
ExecutionTime = 0.75 s  ClockTime = 3 s

Courant Number mean: 0.0883013 max: 0.206281
Time = 0.012

smoothSolver:  Solving for Ux, Initial residual = 0.0371876, Final residual = 3.04986e-07, No Iterations 2
smoothSolver:  Solving for Uy, Initial residual = 0.335969, Final residual = 3.83115e-06, No Iterations 2
DICPCG:  Solving for p, Initial residual = 0.0605194, Final residual = 0.00244265, No Iterations 79
DICPCG:  Solving for p, Initial residual = 0.190257, Final residual = 0.00842169, No Iterations 7
time step continuity errors : sum local = 4.44248e-06, global = 7.31727e-08, cumulative = 4.88136e-06
DICPCG:  Solving for p, Initial residual = 0.0619672, Final residual = 0.00300895, No Iterations 86
DICPCG:  Solving for p, Initial residual = 0.017437, Final residual = 0.000820953, No Iterations 5
time step continuity errors : sum local = 4.48625e-06, global = 1.90859e-08, cumulative = 4.90045e-06
DICPCG:  Solving for p, Initial residual = 0.00210357, Final residual = 9.19912e-05, No Iterations 82
DICPCG:  Solving for p, Initial residual = 0.00162656, Final residual = 7.85377e-07, No Iterations 92
time step continuity errors : sum local = 3.97765e-09, global = -7.88389e-11, cumulative = 4.90037e-06
ExecutionTime = 0.78 s  ClockTime = 3 s

Courant Number mean: 0.0912317 max: 0.213984
Time = 0.013

smoothSolver:  Solving for Ux, Initial residual = 0.0335026, Final residual = 3.04319e-07, No Iterations 2
smoothSolver:  Solving for Uy, Initial residual = 0.318789, Final residual = 4.02281e-06, No Iterations 2
DICPCG:  Solving for p, Initial residual = 0.0597696, Final residual = 0.0023642, No Iterations 79
DICPCG:  Solving for p, Initial residual = 0.183007, Final residual = 0.00809307, No Iterations 7
time step continuity errors : sum local = 4.39365e-06, global = 6.83945e-08, cumulative = 4.96876e-06
DICPCG:  Solving for p, Initial residual = 0.0596147, Final residual = 0.0027786, No Iterations 86
DICPCG:  Solving for p, Initial residual = 0.0174347, Final residual = 0.000818016, No Iterations 5
time step continuity errors : sum local = 4.45149e-06, global = 1.89736e-08, cumulative = 4.98774e-06
DICPCG:  Solving for p, Initial residual = 0.00213051, Final residual = 9.25013e-05, No Iterations 82
DICPCG:  Solving for p, Initial residual = 0.00166956, Final residual = 9.16743e-07, No Iterations 92
time step continuity errors : sum local = 4.6119e-09, global = -7.73581e-11, cumulative = 4.98766e-06
ExecutionTime = 0.82 s  ClockTime = 4 s

Courant Number mean: 0.0941465 max: 0.221666
Time = 0.014

smoothSolver:  Solving for Ux, Initial residual = 0.0303162, Final residual = 3.05371e-07, No Iterations 2
smoothSolver:  Solving for Uy, Initial residual = 0.303185, Final residual = 4.21972e-06, No Iterations 2
DICPCG:  Solving for p, Initial residual = 0.0588905, Final residual = 0.00240118, No Iterations 79
DICPCG:  Solving for p, Initial residual = 0.17763, Final residual = 0.00790483, No Iterations 7
time step continuity errors : sum local = 4.39245e-06, global = 6.95246e-08, cumulative = 5.05718e-06
DICPCG:  Solving for p, Initial residual = 0.0577777, Final residual = 0.00254868, No Iterations 86
DICPCG:  Solving for p, Initial residual = 0.0174354, Final residual = 0.00081362, No Iterations 5
time step continuity errors : sum local = 4.40739e-06, global = 1.88693e-08, cumulative = 5.07605e-06
DICPCG:  Solving for p, Initial residual = 0.0021548, Final residual = 9.40824e-05, No Iterations 82
DICPCG:  Solving for p, Initial residual = 0.00171251, Final residual = 9.27625e-07, No Iterations 92
time step continuity errors : sum local = 4.63344e-09, global = -7.97628e-11, cumulative = 5.07597e-06
ExecutionTime = 0.85 s  ClockTime = 4 s

Courant Number mean: 0.0970445 max: 0.22932
Time = 0.015

smoothSolver:  Solving for Ux, Initial residual = 0.0280846, Final residual = 3.07625e-07, No Iterations 2
smoothSolver:  Solving for Uy, Initial residual = 0.288942, Final residual = 4.42095e-06, No Iterations 2
DICPCG:  Solving for p, Initial residual = 0.0578405, Final residual = 0.00237352, No Iterations 79
DICPCG:  Solving for p, Initial residual = 0.172122, Final residual = 0.00771307, No Iterations 7
time step continuity errors : sum local = 4.38151e-06, global = 6.84234e-08, cumulative = 5.1444e-06
DICPCG:  Solving for p, Initial residual = 0.0560599, Final residual = 0.00249092, No Iterations 86
DICPCG:  Solving for p, Initial residual = 0.0174491, Final residual = 0.00081508, No Iterations 5
time step continuity errors : sum local = 4.3945e-06, global = 1.89249e-08, cumulative = 5.16332e-06
DICPCG:  Solving for p, Initial residual = 0.00218385, Final residual = 9.59894e-05, No Iterations 82
DICPCG:  Solving for p, Initial residual = 0.00175713, Final residual = 8.3858e-07, No Iterations 92
time step continuity errors : sum local = 4.15838e-09, global = -8.43141e-11, cumulative = 5.16324e-06
ExecutionTime = 0.9 s  ClockTime = 4 s

Courant Number mean: 0.0999259 max: 0.23694
Time = 0.016

smoothSolver:  Solving for Ux, Initial residual = 0.0261934, Final residual = 3.1601e-07, No Iterations 2
smoothSolver:  Solving for Uy, Initial residual = 0.27585, Final residual = 4.62631e-06, No Iterations 2
DICPCG:  Solving for p, Initial residual = 0.0574439, Final residual = 0.00234639, No Iterations 79
DICPCG:  Solving for p, Initial residual = 0.167115, Final residual = 0.00747505, No Iterations 7
time step continuity errors : sum local = 4.33901e-06, global = 6.68471e-08, cumulative = 5.23008e-06
DICPCG:  Solving for p, Initial residual = 0.0544643, Final residual = 0.00265083, No Iterations 86
DICPCG:  Solving for p, Initial residual = 0.0174788, Final residual = 0.000823381, No Iterations 5
time step continuity errors : sum local = 4.41789e-06, global = 1.90807e-08, cumulative = 5.24917e-06
DICPCG:  Solving for p, Initial residual = 0.00221723, Final residual = 9.81737e-05, No Iterations 82
DICPCG:  Solving for p, Initial residual = 0.00180053, Final residual = 9.60185e-07, No Iterations 92
time step continuity errors : sum local = 4.72645e-09, global = -8.5378e-11, cumulative = 5.24908e-06
ExecutionTime = 0.93 s  ClockTime = 4 s

Courant Number mean: 0.10279 max: 0.244523
Time = 0.017

smoothSolver:  Solving for Ux, Initial residual = 0.0246998, Final residual = 3.32423e-07, No Iterations 2
smoothSolver:  Solving for Uy, Initial residual = 0.263742, Final residual = 4.83517e-06, No Iterations 2
DICPCG:  Solving for p, Initial residual = 0.0567496, Final residual = 0.00232417, No Iterations 79
DICPCG:  Solving for p, Initial residual = 0.162314, Final residual = 0.00725999, No Iterations 7
time step continuity errors : sum local = 4.30262e-06, global = 6.59498e-08, cumulative = 5.31503e-06
DICPCG:  Solving for p, Initial residual = 0.0529456, Final residual = 0.00251668, No Iterations 86
DICPCG:  Solving for p, Initial residual = 0.0174845, Final residual = 0.000823591, No Iterations 5
time step continuity errors : sum local = 4.39791e-06, global = 1.89749e-08, cumulative = 5.334e-06
DICPCG:  Solving for p, Initial residual = 0.00224496, Final residual = 9.97744e-05, No Iterations 82
DICPCG:  Solving for p, Initial residual = 0.00184311, Final residual = 9.95258e-07, No Iterations 92
time step continuity errors : sum local = 4.86319e-09, global = -8.72593e-11, cumulative = 5.33392e-06
ExecutionTime = 0.97 s  ClockTime = 4 s

Courant Number mean: 0.105637 max: 0.252063
Time = 0.018

smoothSolver:  Solving for Ux, Initial residual = 0.0235558, Final residual = 3.53767e-07, No Iterations 2
smoothSolver:  Solving for Uy, Initial residual = 0.252506, Final residual = 5.04667e-06, No Iterations 2
DICPCG:  Solving for p, Initial residual = 0.0559927, Final residual = 0.00230939, No Iterations 79
DICPCG:  Solving for p, Initial residual = 0.157917, Final residual = 0.00706954, No Iterations 7
time step continuity errors : sum local = 4.27277e-06, global = 6.61989e-08, cumulative = 5.40012e-06
DICPCG:  Solving for p, Initial residual = 0.0514999, Final residual = 0.00231269, No Iterations 86
DICPCG:  Solving for p, Initial residual = 0.0174809, Final residual = 0.000819042, No Iterations 5
time step continuity errors : sum local = 4.35301e-06, global = 1.84892e-08, cumulative = 5.41861e-06
DICPCG:  Solving for p, Initial residual = 0.00226854, Final residual = 9.99681e-05, No Iterations 82
DICPCG:  Solving for p, Initial residual = 0.00188319, Final residual = 8.9142e-07, No Iterations 92
time step continuity errors : sum local = 4.32413e-09, global = -9.10506e-11, cumulative = 5.41851e-06
ExecutionTime = 1 s  ClockTime = 4 s

Courant Number mean: 0.108466 max: 0.259552
Time = 0.019

smoothSolver:  Solving for Ux, Initial residual = 0.0226119, Final residual = 3.77757e-07, No Iterations 2
smoothSolver:  Solving for Uy, Initial residual = 0.24207, Final residual = 5.26064e-06, No Iterations 2
DICPCG:  Solving for p, Initial residual = 0.0552861, Final residual = 0.00228813, No Iterations 79
DICPCG:  Solving for p, Initial residual = 0.153611, Final residual = 0.00687422, No Iterations 7
time step continuity errors : sum local = 4.23628e-06, global = 6.60689e-08, cumulative = 5.48458e-06
DICPCG:  Solving for p, Initial residual = 0.0501315, Final residual = 0.00236012, No Iterations 86
DICPCG:  Solving for p, Initial residual = 0.0174985, Final residual = 0.000824652, No Iterations 5
time step continuity errors : sum local = 4.36223e-06, global = 1.8901e-08, cumulative = 5.50348e-06
DICPCG:  Solving for p, Initial residual = 0.00229927, Final residual = 0.000102564, No Iterations 82
DICPCG:  Solving for p, Initial residual = 0.00192722, Final residual = 9.3203e-07, No Iterations 92
time step continuity errors : sum local = 4.48865e-09, global = -9.14921e-11, cumulative = 5.50339e-06
ExecutionTime = 1.02 s  ClockTime = 4 s

Courant Number mean: 0.111278 max: 0.266984
Time = 0.02

smoothSolver:  Solving for Ux, Initial residual = 0.0219355, Final residual = 4.04396e-07, No Iterations 2
smoothSolver:  Solving for Uy, Initial residual = 0.232334, Final residual = 5.47681e-06, No Iterations 2
DICPCG:  Solving for p, Initial residual = 0.0550484, Final residual = 0.00228564, No Iterations 79
DICPCG:  Solving for p, Initial residual = 0.149664, Final residual = 0.00670744, No Iterations 7
time step continuity errors : sum local = 4.21231e-06, global = 6.62486e-08, cumulative = 5.56964e-06
DICPCG:  Solving for p, Initial residual = 0.0488692, Final residual = 0.00214663, No Iterations 86
DICPCG:  Solving for p, Initial residual = 0.0174968, Final residual = 0.000815255, No Iterations 5
time step continuity errors : sum local = 4.29204e-06, global = 1.88142e-08, cumulative = 5.58846e-06
DICPCG:  Solving for p, Initial residual = 0.00231737, Final residual = 0.000102424, No Iterations 82
DICPCG:  Solving for p, Initial residual = 0.0019665, Final residual = 9.19726e-07, No Iterations 92
time step continuity errors : sum local = 4.3977e-09, global = -9.27211e-11, cumulative = 5.58836e-06
ExecutionTime = 1.07 s  ClockTime = 4 s

Courant Number mean: 0.114071 max: 0.274355
Time = 0.021

smoothSolver:  Solving for Ux, Initial residual = 0.0213277, Final residual = 4.34494e-07, No Iterations 2
smoothSolver:  Solving for Uy, Initial residual = 0.223222, Final residual = 5.69472e-06, No Iterations 2
DICPCG:  Solving for p, Initial residual = 0.0545427, Final residual = 0.0022723, No Iterations 79
DICPCG:  Solving for p, Initial residual = 0.145618, Final residual = 0.00651435, No Iterations 7
time step continuity errors : sum local = 4.17273e-06, global = 6.63673e-08, cumulative = 5.65473e-06
DICPCG:  Solving for p, Initial residual = 0.0476337, Final residual = 0.00225858, No Iterations 86
DICPCG:  Solving for p, Initial residual = 0.0175125, Final residual = 0.000825288, No Iterations 5
time step continuity errors : sum local = 4.32448e-06, global = 1.88801e-08, cumulative = 5.67361e-06
DICPCG:  Solving for p, Initial residual = 0.00235041, Final residual = 0.00010548, No Iterations 82
DICPCG:  Solving for p, Initial residual = 0.0020081, Final residual = 8.17436e-07, No Iterations 93
time step continuity errors : sum local = 3.88169e-09, global = -8.47912e-11, cumulative = 5.67353e-06
ExecutionTime = 1.1 s  ClockTime = 4 s

Courant Number mean: 0.116845 max: 0.28166
Time = 0.022

smoothSolver:  Solving for Ux, Initial residual = 0.0207015, Final residual = 4.69629e-07, No Iterations 2
smoothSolver:  Solving for Uy, Initial residual = 0.214674, Final residual = 5.9141e-06, No Iterations 2
DICPCG:  Solving for p, Initial residual = 0.0542382, Final residual = 0.00226994, No Iterations 79
DICPCG:  Solving for p, Initial residual = 0.141767, Final residual = 0.00634395, No Iterations 7
time step continuity errors : sum local = 4.14431e-06, global = 6.62276e-08, cumulative = 5.73975e-06
DICPCG:  Solving for p, Initial residual = 0.0464596, Final residual = 0.00208591, No Iterations 86
DICPCG:  Solving for p, Initial residual = 0.0175071, Final residual = 0.000818215, No Iterations 5
time step continuity errors : sum local = 4.26751e-06, global = 1.8803e-08, cumulative = 5.75856e-06
DICPCG:  Solving for p, Initial residual = 0.00237043, Final residual = 0.00010644, No Iterations 82
DICPCG:  Solving for p, Initial residual = 0.00204737, Final residual = 8.34292e-07, No Iterations 93
time step continuity errors : sum local = 3.93497e-09, global = -8.66864e-11, cumulative = 5.75847e-06
ExecutionTime = 1.13 s  ClockTime = 4 s

Courant Number mean: 0.119602 max: 0.288895
Time = 0.023

smoothSolver:  Solving for Ux, Initial residual = 0.0200272, Final residual = 5.08369e-07, No Iterations 2
smoothSolver:  Solving for Uy, Initial residual = 0.206642, Final residual = 6.13478e-06, No Iterations 2
DICPCG:  Solving for p, Initial residual = 0.0536821, Final residual = 0.00225899, No Iterations 79
DICPCG:  Solving for p, Initial residual = 0.138074, Final residual = 0.00617179, No Iterations 7
time step continuity errors : sum local = 4.10752e-06, global = 6.67904e-08, cumulative = 5.82526e-06
DICPCG:  Solving for p, Initial residual = 0.0453545, Final residual = 0.00213596, No Iterations 86
DICPCG:  Solving for p, Initial residual = 0.0175158, Final residual = 0.000825763, No Iterations 5
time step continuity errors : sum local = 4.28669e-06, global = 1.88002e-08, cumulative = 5.84406e-06
DICPCG:  Solving for p, Initial residual = 0.00240024, Final residual = 0.000107815, No Iterations 82
DICPCG:  Solving for p, Initial residual = 0.00208624, Final residual = 8.47874e-07, No Iterations 93
time step continuity errors : sum local = 3.97208e-09, global = -8.75087e-11, cumulative = 5.84397e-06
ExecutionTime = 1.17 s  ClockTime = 4 s

Courant Number mean: 0.12234 max: 0.296058
Time = 0.024

smoothSolver:  Solving for Ux, Initial residual = 0.0194025, Final residual = 5.51383e-07, No Iterations 2
smoothSolver:  Solving for Uy, Initial residual = 0.199076, Final residual = 6.35642e-06, No Iterations 2
DICPCG:  Solving for p, Initial residual = 0.0536073, Final residual = 0.00226498, No Iterations 79
DICPCG:  Solving for p, Initial residual = 0.134779, Final residual = 0.0060269, No Iterations 7
time step continuity errors : sum local = 4.08232e-06, global = 6.65365e-08, cumulative = 5.91051e-06
DICPCG:  Solving for p, Initial residual = 0.0443604, Final residual = 0.0019838, No Iterations 86
DICPCG:  Solving for p, Initial residual = 0.0175114, Final residual = 0.000819374, No Iterations 5
time step continuity errors : sum local = 4.23307e-06, global = 1.87102e-08, cumulative = 5.92922e-06
DICPCG:  Solving for p, Initial residual = 0.00242024, Final residual = 0.000108852, No Iterations 82
DICPCG:  Solving for p, Initial residual = 0.00212372, Final residual = 8.50489e-07, No Iterations 93
time step continuity errors : sum local = 3.9572e-09, global = -8.89489e-11, cumulative = 5.92913e-06
ExecutionTime = 1.2 s  ClockTime = 4 s

Courant Number mean: 0.12506 max: 0.303146
Time = 0.025

smoothSolver:  Solving for Ux, Initial residual = 0.0189179, Final residual = 5.95134e-07, No Iterations 2
smoothSolver:  Solving for Uy, Initial residual = 0.191937, Final residual = 6.5787e-06, No Iterations 2
DICPCG:  Solving for p, Initial residual = 0.0530456, Final residual = 0.00225511, No Iterations 79
DICPCG:  Solving for p, Initial residual = 0.131634, Final residual = 0.00587583, No Iterations 7
time step continuity errors : sum local = 4.04366e-06, global = 6.68128e-08, cumulative = 5.99594e-06
DICPCG:  Solving for p, Initial residual = 0.0434637, Final residual = 0.00205772, No Iterations 86
DICPCG:  Solving for p, Initial residual = 0.0175249, Final residual = 0.000828963, No Iterations 5
time step continuity errors : sum local = 4.26107e-06, global = 1.87015e-08, cumulative = 6.01464e-06
DICPCG:  Solving for p, Initial residual = 0.00245197, Final residual = 0.000110538, No Iterations 82
DICPCG:  Solving for p, Initial residual = 0.00216271, Final residual = 8.6924e-07, No Iterations 93
time step continuity errors : sum local = 4.01611e-09, global = -8.96574e-11, cumulative = 6.01455e-06
ExecutionTime = 1.22 s  ClockTime = 4 s

Courant Number mean: 0.127762 max: 0.310158
Time = 0.026

smoothSolver:  Solving for Ux, Initial residual = 0.0184826, Final residual = 6.39636e-07, No Iterations 2
smoothSolver:  Solving for Uy, Initial residual = 0.185182, Final residual = 6.8012e-06, No Iterations 2
DICPCG:  Solving for p, Initial residual = 0.053002, Final residual = 0.00213195, No Iterations 79
DICPCG:  Solving for p, Initial residual = 0.128131, Final residual = 0.00561412, No Iterations 7
time step continuity errors : sum local = 3.91613e-06, global = 6.23167e-08, cumulative = 6.07687e-06
DICPCG:  Solving for p, Initial residual = 0.0425631, Final residual = 0.0019571, No Iterations 86
DICPCG:  Solving for p, Initial residual = 0.0175278, Final residual = 0.000828743, No Iterations 5
time step continuity errors : sum local = 4.23743e-06, global = 1.8525e-08, cumulative = 6.0954e-06
DICPCG:  Solving for p, Initial residual = 0.00247736, Final residual = 0.000109194, No Iterations 82
DICPCG:  Solving for p, Initial residual = 0.00219819, Final residual = 9.05907e-07, No Iterations 93
time step continuity errors : sum local = 4.15526e-09, global = -9.20673e-11, cumulative = 6.0953e-06
ExecutionTime = 1.28 s  ClockTime = 4 s

Courant Number mean: 0.130447 max: 0.317093
Time = 0.027

smoothSolver:  Solving for Ux, Initial residual = 0.0181732, Final residual = 6.84126e-07, No Iterations 2
smoothSolver:  Solving for Uy, Initial residual = 0.178775, Final residual = 7.02362e-06, No Iterations 2
DICPCG:  Solving for p, Initial residual = 0.0529473, Final residual = 0.00227216, No Iterations 79
DICPCG:  Solving for p, Initial residual = 0.126539, Final residual = 0.00567979, No Iterations 7
time step continuity errors : sum local = 4.01248e-06, global = 6.61757e-08, cumulative = 6.16148e-06
DICPCG:  Solving for p, Initial residual = 0.0420561, Final residual = 0.0018092, No Iterations 86
DICPCG:  Solving for p, Initial residual = 0.0175279, Final residual = 0.000822962, No Iterations 5
time step continuity errors : sum local = 4.18479e-06, global = 1.83896e-08, cumulative = 6.17987e-06
DICPCG:  Solving for p, Initial residual = 0.00249915, Final residual = 0.000107078, No Iterations 82
DICPCG:  Solving for p, Initial residual = 0.00223517, Final residual = 9.21609e-07, No Iterations 93
time step continuity errors : sum local = 4.19599e-09, global = -9.49268e-11, cumulative = 6.17977e-06
ExecutionTime = 1.31 s  ClockTime = 4 s

Courant Number mean: 0.133113 max: 0.323951
Time = 0.028

smoothSolver:  Solving for Ux, Initial residual = 0.0178958, Final residual = 7.28214e-07, No Iterations 2
smoothSolver:  Solving for Uy, Initial residual = 0.172687, Final residual = 7.24559e-06, No Iterations 2
DICPCG:  Solving for p, Initial residual = 0.0527879, Final residual = 0.0022749, No Iterations 79
DICPCG:  Solving for p, Initial residual = 0.124192, Final residual = 0.00557378, No Iterations 7
time step continuity errors : sum local = 3.9842e-06, global = 6.58928e-08, cumulative = 6.24567e-06
DICPCG:  Solving for p, Initial residual = 0.0413702, Final residual = 0.00194049, No Iterations 86
DICPCG:  Solving for p, Initial residual = 0.0175544, Final residual = 0.000831271, No Iterations 5
time step continuity errors : sum local = 4.20363e-06, global = 1.85227e-08, cumulative = 6.26419e-06
DICPCG:  Solving for p, Initial residual = 0.00252923, Final residual = 0.000114567, No Iterations 82
DICPCG:  Solving for p, Initial residual = 0.00227659, Final residual = 9.28172e-07, No Iterations 93
time step continuity errors : sum local = 4.19437e-09, global = -9.41304e-11, cumulative = 6.2641e-06
ExecutionTime = 1.34 s  ClockTime = 5 s

Courant Number mean: 0.135761 max: 0.330733
Time = 0.029

smoothSolver:  Solving for Ux, Initial residual = 0.0177328, Final residual = 7.72661e-07, No Iterations 2
smoothSolver:  Solving for Uy, Initial residual = 0.166898, Final residual = 7.46682e-06, No Iterations 2
DICPCG:  Solving for p, Initial residual = 0.052725, Final residual = 0.00228064, No Iterations 79
DICPCG:  Solving for p, Initial residual = 0.12208, Final residual = 0.00548419, No Iterations 7
time step continuity errors : sum local = 3.96117e-06, global = 6.57571e-08, cumulative = 6.32985e-06
DICPCG:  Solving for p, Initial residual = 0.0407864, Final residual = 0.00191208, No Iterations 86
DICPCG:  Solving for p, Initial residual = 0.0175672, Final residual = 0.000832554, No Iterations 5
time step continuity errors : sum local = 4.18599e-06, global = 1.84735e-08, cumulative = 6.34833e-06
DICPCG:  Solving for p, Initial residual = 0.00255541, Final residual = 0.000115905, No Iterations 82
DICPCG:  Solving for p, Initial residual = 0.00231417, Final residual = 9.4388e-07, No Iterations 93
time step continuity errors : sum local = 4.23281e-09, global = -9.52512e-11, cumulative = 6.34823e-06
ExecutionTime = 1.38 s  ClockTime = 5 s

Courant Number mean: 0.138391 max: 0.33744
Time = 0.03

smoothSolver:  Solving for Ux, Initial residual = 0.0175929, Final residual = 8.14897e-07, No Iterations 2
smoothSolver:  Solving for Uy, Initial residual = 0.161388, Final residual = 7.6872e-06, No Iterations 2
DICPCG:  Solving for p, Initial residual = 0.0526678, Final residual = 0.00228698, No Iterations 79
DICPCG:  Solving for p, Initial residual = 0.120156, Final residual = 0.00538941, No Iterations 7
time step continuity errors : sum local = 3.92882e-06, global = 6.50519e-08, cumulative = 6.41328e-06
DICPCG:  Solving for p, Initial residual = 0.0402643, Final residual = 0.00183409, No Iterations 86
DICPCG:  Solving for p, Initial residual = 0.0175783, Final residual = 0.000828589, No Iterations 5
time step continuity errors : sum local = 4.14139e-06, global = 1.84114e-08, cumulative = 6.43169e-06
DICPCG:  Solving for p, Initial residual = 0.00257915, Final residual = 0.000116882, No Iterations 82
DICPCG:  Solving for p, Initial residual = 0.00235176, Final residual = 9.7147e-07, No Iterations 93
time step continuity errors : sum local = 4.32257e-09, global = -9.71737e-11, cumulative = 6.4316e-06
ExecutionTime = 1.44 s  ClockTime = 5 s

Courant Number mean: 0.141002 max: 0.344074
Time = 0.031

smoothSolver:  Solving for Ux, Initial residual = 0.0175026, Final residual = 8.53214e-07, No Iterations 2
smoothSolver:  Solving for Uy, Initial residual = 0.156137, Final residual = 7.90656e-06, No Iterations 2
DICPCG:  Solving for p, Initial residual = 0.0526255, Final residual = 0.00229244, No Iterations 79
DICPCG:  Solving for p, Initial residual = 0.118395, Final residual = 0.00532658, No Iterations 7
time step continuity errors : sum local = 3.91381e-06, global = 6.52698e-08, cumulative = 6.49687e-06
DICPCG:  Solving for p, Initial residual = 0.0398022, Final residual = 0.00171441, No Iterations 86
DICPCG:  Solving for p, Initial residual = 0.0175844, Final residual = 0.00082743, No Iterations 5
time step continuity errors : sum local = 4.11032e-06, global = 1.82172e-08, cumulative = 6.51508e-06
DICPCG:  Solving for p, Initial residual = 0.00260478, Final residual = 0.000115423, No Iterations 82
DICPCG:  Solving for p, Initial residual = 0.00238447, Final residual = 9.85448e-07, No Iterations 93
time step continuity errors : sum local = 4.34979e-09, global = -9.7606e-11, cumulative = 6.51499e-06
ExecutionTime = 1.48 s  ClockTime = 5 s

Courant Number mean: 0.143595 max: 0.350638
Time = 0.032

smoothSolver:  Solving for Ux, Initial residual = 0.0173889, Final residual = 8.88379e-07, No Iterations 2
smoothSolver:  Solving for Uy, Initial residual = 0.15113, Final residual = 8.12479e-06, No Iterations 2
DICPCG:  Solving for p, Initial residual = 0.0528958, Final residual = 0.00231266, No Iterations 79
DICPCG:  Solving for p, Initial residual = 0.116905, Final residual = 0.00528846, No Iterations 7
time step continuity errors : sum local = 3.91129e-06, global = 6.49418e-08, cumulative = 6.57993e-06
DICPCG:  Solving for p, Initial residual = 0.0393926, Final residual = 0.00182492, No Iterations 86
DICPCG:  Solving for p, Initial residual = 0.0176169, Final residual = 0.000834771, No Iterations 5
time step continuity errors : sum local = 4.12065e-06, global = 1.83144e-08, cumulative = 6.59824e-06
DICPCG:  Solving for p, Initial residual = 0.00263534, Final residual = 0.000119822, No Iterations 82
DICPCG:  Solving for p, Initial residual = 0.0024266, Final residual = 9.21963e-07, No Iterations 93
time step continuity errors : sum local = 4.03635e-09, global = -9.08051e-11, cumulative = 6.59815e-06
ExecutionTime = 1.52 s  ClockTime = 5 s

Courant Number mean: 0.14617 max: 0.357135
Time = 0.033

smoothSolver:  Solving for Ux, Initial residual = 0.0172133, Final residual = 9.19418e-07, No Iterations 2
smoothSolver:  Solving for Uy, Initial residual = 0.146349, Final residual = 8.34183e-06, No Iterations 2
DICPCG:  Solving for p, Initial residual = 0.0531883, Final residual = 0.00230969, No Iterations 79
DICPCG:  Solving for p, Initial residual = 0.11548, Final residual = 0.00520412, No Iterations 7
time step continuity errors : sum local = 3.87015e-06, global = 6.41515e-08, cumulative = 6.6623e-06
DICPCG:  Solving for p, Initial residual = 0.0390288, Final residual = 0.00171699, No Iterations 86
DICPCG:  Solving for p, Initial residual = 0.0176281, Final residual = 0.000830437, No Iterations 5
time step continuity errors : sum local = 4.07277e-06, global = 1.77248e-08, cumulative = 6.68003e-06
DICPCG:  Solving for p, Initial residual = 0.00265867, Final residual = 0.000119445, No Iterations 82
DICPCG:  Solving for p, Initial residual = 0.00246268, Final residual = 9.19034e-07, No Iterations 93
time step continuity errors : sum local = 3.99011e-09, global = -9.46924e-11, cumulative = 6.67993e-06
ExecutionTime = 1.55 s  ClockTime = 5 s

Courant Number mean: 0.148728 max: 0.363565
Time = 0.034

smoothSolver:  Solving for Ux, Initial residual = 0.0170439, Final residual = 9.52673e-07, No Iterations 2
smoothSolver:  Solving for Uy, Initial residual = 0.141787, Final residual = 8.55724e-06, No Iterations 2
DICPCG:  Solving for p, Initial residual = 0.0533919, Final residual = 0.00233676, No Iterations 79
DICPCG:  Solving for p, Initial residual = 0.114271, Final residual = 0.00518946, No Iterations 7
time step continuity errors : sum local = 3.87691e-06, global = 6.3991e-08, cumulative = 6.74393e-06
DICPCG:  Solving for p, Initial residual = 0.0387192, Final residual = 0.00176676, No Iterations 86
DICPCG:  Solving for p, Initial residual = 0.0176558, Final residual = 0.000837575, No Iterations 5
time step continuity errors : sum local = 4.08068e-06, global = 1.81402e-08, cumulative = 6.76207e-06
DICPCG:  Solving for p, Initial residual = 0.00269248, Final residual = 0.000121009, No Iterations 82
DICPCG:  Solving for p, Initial residual = 0.00250002, Final residual = 8.24504e-07, No Iterations 94
time step continuity errors : sum local = 3.54942e-09, global = -5.78645e-11, cumulative = 6.76201e-06
ExecutionTime = 1.6 s  ClockTime = 5 s

Courant Number mean: 0.151267 max: 0.369932
Time = 0.035

smoothSolver:  Solving for Ux, Initial residual = 0.0168938, Final residual = 9.77573e-07, No Iterations 2
smoothSolver:  Solving for Uy, Initial residual = 0.137419, Final residual = 8.77075e-06, No Iterations 2
DICPCG:  Solving for p, Initial residual = 0.0536938, Final residual = 0.00235573, No Iterations 79
DICPCG:  Solving for p, Initial residual = 0.113147, Final residual = 0.00515933, No Iterations 7
time step continuity errors : sum local = 3.86828e-06, global = 6.35534e-08, cumulative = 6.82556e-06
DICPCG:  Solving for p, Initial residual = 0.0384415, Final residual = 0.0017024, No Iterations 86
DICPCG:  Solving for p, Initial residual = 0.0176734, Final residual = 0.000837721, No Iterations 5
time step continuity errors : sum local = 4.05377e-06, global = 1.74374e-08, cumulative = 6.843e-06
DICPCG:  Solving for p, Initial residual = 0.00271886, Final residual = 0.000122274, No Iterations 82
DICPCG:  Solving for p, Initial residual = 0.00253592, Final residual = 9.56904e-07, No Iterations 93
time step continuity errors : sum local = 4.08388e-09, global = -9.66634e-11, cumulative = 6.8429e-06
ExecutionTime = 1.65 s  ClockTime = 5 s

Courant Number mean: 0.153787 max: 0.37624
Time = 0.036

smoothSolver:  Solving for Ux, Initial residual = 0.0167125, Final residual = 9.97966e-07, No Iterations 2
smoothSolver:  Solving for Uy, Initial residual = 0.133238, Final residual = 8.98203e-06, No Iterations 2
DICPCG:  Solving for p, Initial residual = 0.054, Final residual = 0.00237195, No Iterations 79
DICPCG:  Solving for p, Initial residual = 0.112099, Final residual = 0.00512382, No Iterations 7
time step continuity errors : sum local = 3.85269e-06, global = 6.32392e-08, cumulative = 6.90614e-06
DICPCG:  Solving for p, Initial residual = 0.0381864, Final residual = 0.00174684, No Iterations 86
DICPCG:  Solving for p, Initial residual = 0.0177045, Final residual = 0.000841414, No Iterations 5
time step continuity errors : sum local = 4.04366e-06, global = 1.80122e-08, cumulative = 6.92415e-06
DICPCG:  Solving for p, Initial residual = 0.00275079, Final residual = 0.000124763, No Iterations 82
DICPCG:  Solving for p, Initial residual = 0.00257494, Final residual = 8.49748e-07, No Iterations 94
time step continuity errors : sum local = 3.59491e-09, global = -5.91953e-11, cumulative = 6.92409e-06
ExecutionTime = 1.68 s  ClockTime = 5 s

Courant Number mean: 0.15629 max: 0.382493
Time = 0.037

smoothSolver:  Solving for Ux, Initial residual = 0.016555, Final residual = 1.01893e-06, No Iterations 2
smoothSolver:  Solving for Uy, Initial residual = 0.129236, Final residual = 9.19142e-06, No Iterations 2
DICPCG:  Solving for p, Initial residual = 0.0543213, Final residual = 0.00239266, No Iterations 79
DICPCG:  Solving for p, Initial residual = 0.111144, Final residual = 0.00504489, No Iterations 7
time step continuity errors : sum local = 3.80187e-06, global = 6.14622e-08, cumulative = 6.98556e-06
DICPCG:  Solving for p, Initial residual = 0.0379452, Final residual = 0.00173488, No Iterations 86
DICPCG:  Solving for p, Initial residual = 0.0177302, Final residual = 0.000843835, No Iterations 5
time step continuity errors : sum local = 4.02702e-06, global = 1.78824e-08, cumulative = 7.00344e-06
DICPCG:  Solving for p, Initial residual = 0.0027808, Final residual = 0.000126161, No Iterations 82
DICPCG:  Solving for p, Initial residual = 0.00261216, Final residual = 8.62799e-07, No Iterations 94
time step continuity errors : sum local = 3.618e-09, global = -5.99284e-11, cumulative = 7.00338e-06
ExecutionTime = 1.73 s  ClockTime = 5 s

Courant Number mean: 0.158774 max: 0.388692
Time = 0.038

smoothSolver:  Solving for Ux, Initial residual = 0.0164095, Final residual = 1.03958e-06, No Iterations 2
smoothSolver:  Solving for Uy, Initial residual = 0.125397, Final residual = 9.39822e-06, No Iterations 2
DICPCG:  Solving for p, Initial residual = 0.0549338, Final residual = 0.00241814, No Iterations 79
DICPCG:  Solving for p, Initial residual = 0.110346, Final residual = 0.00504146, No Iterations 7
time step continuity errors : sum local = 3.80462e-06, global = 6.13906e-08, cumulative = 7.06477e-06
DICPCG:  Solving for p, Initial residual = 0.0377681, Final residual = 0.00172876, No Iterations 86
DICPCG:  Solving for p, Initial residual = 0.0177566, Final residual = 0.000845931, No Iterations 5
time step continuity errors : sum local = 4.00834e-06, global = 1.78282e-08, cumulative = 7.0826e-06
DICPCG:  Solving for p, Initial residual = 0.00281009, Final residual = 0.000127575, No Iterations 82
DICPCG:  Solving for p, Initial residual = 0.0026487, Final residual = 8.37871e-07, No Iterations 94
time step continuity errors : sum local = 3.48224e-09, global = -5.8606e-11, cumulative = 7.08254e-06
ExecutionTime = 1.76 s  ClockTime = 5 s

Courant Number mean: 0.161241 max: 0.394842
Time = 0.039

smoothSolver:  Solving for Ux, Initial residual = 0.0162598, Final residual = 1.06399e-06, No Iterations 2
smoothSolver:  Solving for Uy, Initial residual = 0.121706, Final residual = 9.60196e-06, No Iterations 2
DICPCG:  Solving for p, Initial residual = 0.0555639, Final residual = 0.00244152, No Iterations 79
DICPCG:  Solving for p, Initial residual = 0.109576, Final residual = 0.00505529, No Iterations 7
time step continuity errors : sum local = 3.81861e-06, global = 6.17042e-08, cumulative = 7.14424e-06
DICPCG:  Solving for p, Initial residual = 0.0375888, Final residual = 0.001716, No Iterations 86
DICPCG:  Solving for p, Initial residual = 0.0177807, Final residual = 0.000846797, No Iterations 5
time step continuity errors : sum local = 3.98374e-06, global = 1.77694e-08, cumulative = 7.16201e-06
DICPCG:  Solving for p, Initial residual = 0.00283792, Final residual = 0.000128913, No Iterations 82
DICPCG:  Solving for p, Initial residual = 0.00268445, Final residual = 8.88156e-07, No Iterations 94
time step continuity errors : sum local = 3.65828e-09, global = -6.1171e-11, cumulative = 7.16195e-06
ExecutionTime = 1.79 s  ClockTime = 5 s

Courant Number mean: 0.16369 max: 0.400947
Time = 0.04

smoothSolver:  Solving for Ux, Initial residual = 0.0160946, Final residual = 1.08243e-06, No Iterations 2
smoothSolver:  Solving for Uy, Initial residual = 0.118159, Final residual = 9.8031e-06, No Iterations 2
DICPCG:  Solving for p, Initial residual = 0.0559215, Final residual = 0.00247064, No Iterations 79
DICPCG:  Solving for p, Initial residual = 0.108802, Final residual = 0.00506088, No Iterations 7
time step continuity errors : sum local = 3.8258e-06, global = 6.23602e-08, cumulative = 7.22431e-06
DICPCG:  Solving for p, Initial residual = 0.0374393, Final residual = 0.00170727, No Iterations 86
DICPCG:  Solving for p, Initial residual = 0.0178037, Final residual = 0.000848265, No Iterations 5
time step continuity errors : sum local = 3.96201e-06, global = 1.77174e-08, cumulative = 7.24203e-06
DICPCG:  Solving for p, Initial residual = 0.0028667, Final residual = 0.000130246, No Iterations 82
DICPCG:  Solving for p, Initial residual = 0.0027206, Final residual = 8.99748e-07, No Iterations 94
time step continuity errors : sum local = 3.67288e-09, global = -6.15403e-11, cumulative = 7.24197e-06
ExecutionTime = 1.84 s  ClockTime = 6 s

Courant Number mean: 0.166121 max: 0.407004
Time = 0.041

smoothSolver:  Solving for Ux, Initial residual = 0.0159587, Final residual = 1.10875e-06, No Iterations 2
smoothSolver:  Solving for Uy, Initial residual = 0.114752, Final residual = 1.36754e-07, No Iterations 3
DICPCG:  Solving for p, Initial residual = 0.0565322, Final residual = 0.0024915, No Iterations 79
DICPCG:  Solving for p, Initial residual = 0.108117, Final residual = 0.00503465, No Iterations 7
time step continuity errors : sum local = 3.80775e-06, global = 6.20359e-08, cumulative = 7.304e-06
DICPCG:  Solving for p, Initial residual = 0.0372829, Final residual = 0.00168434, No Iterations 86
DICPCG:  Solving for p, Initial residual = 0.0178284, Final residual = 0.000846279, No Iterations 5
time step continuity errors : sum local = 3.92415e-06, global = 1.76786e-08, cumulative = 7.32168e-06
DICPCG:  Solving for p, Initial residual = 0.0028933, Final residual = 0.000131423, No Iterations 82
DICPCG:  Solving for p, Initial residual = 0.00275546, Final residual = 9.07984e-07, No Iterations 94
time step continuity errors : sum local = 3.67316e-09, global = -6.16234e-11, cumulative = 7.32162e-06
ExecutionTime = 1.88 s  ClockTime = 6 s

Courant Number mean: 0.168535 max: 0.413017
Time = 0.042

smoothSolver:  Solving for Ux, Initial residual = 0.0158174, Final residual = 1.15873e-06, No Iterations 2
smoothSolver:  Solving for Uy, Initial residual = 0.111473, Final residual = 1.42792e-07, No Iterations 3
DICPCG:  Solving for p, Initial residual = 0.0571705, Final residual = 0.00251259, No Iterations 79
DICPCG:  Solving for p, Initial residual = 0.107454, Final residual = 0.00499919, No Iterations 7
time step continuity errors : sum local = 3.78169e-06, global = 6.16224e-08, cumulative = 7.38324e-06
DICPCG:  Solving for p, Initial residual = 0.0371256, Final residual = 0.00167033, No Iterations 86
DICPCG:  Solving for p, Initial residual = 0.0178496, Final residual = 0.000849093, No Iterations 5
time step continuity errors : sum local = 3.90861e-06, global = 1.75787e-08, cumulative = 7.40082e-06
DICPCG:  Solving for p, Initial residual = 0.00292347, Final residual = 0.000132072, No Iterations 82
DICPCG:  Solving for p, Initial residual = 0.00278968, Final residual = 9.23417e-07, No Iterations 94
time step continuity errors : sum local = 3.70199e-09, global = -6.2415e-11, cumulative = 7.40076e-06
ExecutionTime = 1.92 s  ClockTime = 6 s

Courant Number mean: 0.170931 max: 0.418979
Time = 0.043

smoothSolver:  Solving for Ux, Initial residual = 0.0156147, Final residual = 1.19905e-06, No Iterations 2
smoothSolver:  Solving for Uy, Initial residual = 0.108316, Final residual = 1.48912e-07, No Iterations 3
DICPCG:  Solving for p, Initial residual = 0.057812, Final residual = 0.00254636, No Iterations 79
DICPCG:  Solving for p, Initial residual = 0.106826, Final residual = 0.00499684, No Iterations 7
time step continuity errors : sum local = 3.77932e-06, global = 6.18337e-08, cumulative = 7.46259e-06
DICPCG:  Solving for p, Initial residual = 0.0369715, Final residual = 0.00165782, No Iterations 86
DICPCG:  Solving for p, Initial residual = 0.0178713, Final residual = 0.000849851, No Iterations 5
time step continuity errors : sum local = 3.88347e-06, global = 1.75038e-08, cumulative = 7.4801e-06
DICPCG:  Solving for p, Initial residual = 0.00295092, Final residual = 0.000132544, No Iterations 82
DICPCG:  Solving for p, Initial residual = 0.00282225, Final residual = 9.37495e-07, No Iterations 94
time step continuity errors : sum local = 3.72456e-09, global = -6.32074e-11, cumulative = 7.48003e-06
ExecutionTime = 1.94 s  ClockTime = 6 s

Courant Number mean: 0.173309 max: 0.424898
Time = 0.044

smoothSolver:  Solving for Ux, Initial residual = 0.0154067, Final residual = 1.23949e-06, No Iterations 2
smoothSolver:  Solving for Uy, Initial residual = 0.105276, Final residual = 1.55108e-07, No Iterations 3
DICPCG:  Solving for p, Initial residual = 0.0584637, Final residual = 0.00257877, No Iterations 79
DICPCG:  Solving for p, Initial residual = 0.106216, Final residual = 0.00496768, No Iterations 7
time step continuity errors : sum local = 3.75594e-06, global = 6.1565e-08, cumulative = 7.5416e-06
DICPCG:  Solving for p, Initial residual = 0.03682, Final residual = 0.00165059, No Iterations 86
DICPCG:  Solving for p, Initial residual = 0.017896, Final residual = 0.00084966, No Iterations 5
time step continuity errors : sum local = 3.85401e-06, global = 1.74347e-08, cumulative = 7.55903e-06
DICPCG:  Solving for p, Initial residual = 0.00297716, Final residual = 0.000134957, No Iterations 82
DICPCG:  Solving for p, Initial residual = 0.00285823, Final residual = 8.16677e-07, No Iterations 94
time step continuity errors : sum local = 3.2153e-09, global = -5.39408e-11, cumulative = 7.55898e-06
ExecutionTime = 1.98 s  ClockTime = 6 s

Courant Number mean: 0.175669 max: 0.430773
Time = 0.045

smoothSolver:  Solving for Ux, Initial residual = 0.0152296, Final residual = 1.27706e-06, No Iterations 2
smoothSolver:  Solving for Uy, Initial residual = 0.102356, Final residual = 1.61377e-07, No Iterations 3
DICPCG:  Solving for p, Initial residual = 0.0594116, Final residual = 0.00261215, No Iterations 79
DICPCG:  Solving for p, Initial residual = 0.105713, Final residual = 0.00496298, No Iterations 7
time step continuity errors : sum local = 3.75117e-06, global = 6.27934e-08, cumulative = 7.62177e-06
DICPCG:  Solving for p, Initial residual = 0.0367268, Final residual = 0.00158157, No Iterations 86
DICPCG:  Solving for p, Initial residual = 0.0179123, Final residual = 0.000845271, No Iterations 5
time step continuity errors : sum local = 3.80586e-06, global = 1.73621e-08, cumulative = 7.63913e-06
DICPCG:  Solving for p, Initial residual = 0.0030039, Final residual = 0.000131878, No Iterations 82
DICPCG:  Solving for p, Initial residual = 0.00288636, Final residual = 9.61982e-07, No Iterations 94
time step continuity errors : sum local = 3.75327e-09, global = -6.4455e-11, cumulative = 7.63907e-06
ExecutionTime = 2.01 s  ClockTime = 6 s

Courant Number mean: 0.178012 max: 0.436604
Time = 0.046

smoothSolver:  Solving for Ux, Initial residual = 0.0150408, Final residual = 1.34454e-06, No Iterations 2
smoothSolver:  Solving for Uy, Initial residual = 0.0995427, Final residual = 1.67742e-07, No Iterations 3
DICPCG:  Solving for p, Initial residual = 0.0598084, Final residual = 0.00263898, No Iterations 79
DICPCG:  Solving for p, Initial residual = 0.105031, Final residual = 0.00495476, No Iterations 7
time step continuity errors : sum local = 3.74361e-06, global = 6.32447e-08, cumulative = 7.70231e-06
DICPCG:  Solving for p, Initial residual = 0.03657, Final residual = 0.00162964, No Iterations 86
DICPCG:  Solving for p, Initial residual = 0.0179353, Final residual = 0.000850856, No Iterations 5
time step continuity errors : sum local = 3.80274e-06, global = 1.73291e-08, cumulative = 7.71964e-06
DICPCG:  Solving for p, Initial residual = 0.0030321, Final residual = 0.000134344, No Iterations 82
DICPCG:  Solving for p, Initial residual = 0.00292111, Final residual = 9.72336e-07, No Iterations 94
time step continuity errors : sum local = 3.75956e-09, global = -6.52504e-11, cumulative = 7.71958e-06
ExecutionTime = 2.04 s  ClockTime = 6 s

Courant Number mean: 0.180337 max: 0.442397
Time = 0.047

smoothSolver:  Solving for Ux, Initial residual = 0.0148959, Final residual = 1.42703e-06, No Iterations 2
smoothSolver:  Solving for Uy, Initial residual = 0.0968311, Final residual = 1.7418e-07, No Iterations 3
DICPCG:  Solving for p, Initial residual = 0.0607722, Final residual = 0.00267539, No Iterations 79
DICPCG:  Solving for p, Initial residual = 0.104509, Final residual = 0.00489905, No Iterations 7
time step continuity errors : sum local = 3.70021e-06, global = 6.33988e-08, cumulative = 7.78298e-06
DICPCG:  Solving for p, Initial residual = 0.0364201, Final residual = 0.00152523, No Iterations 86
DICPCG:  Solving for p, Initial residual = 0.0179469, Final residual = 0.000845266, No Iterations 5
time step continuity errors : sum local = 3.74985e-06, global = 1.71111e-08, cumulative = 7.80009e-06
DICPCG:  Solving for p, Initial residual = 0.00305567, Final residual = 0.000137973, No Iterations 82
DICPCG:  Solving for p, Initial residual = 0.00295723, Final residual = 9.76144e-07, No Iterations 94
time step continuity errors : sum local = 3.74051e-09, global = -6.45969e-11, cumulative = 7.80002e-06
ExecutionTime = 2.08 s  ClockTime = 6 s

Courant Number mean: 0.182644 max: 0.448147
Time = 0.048

smoothSolver:  Solving for Ux, Initial residual = 0.0147319, Final residual = 1.50516e-06, No Iterations 2
smoothSolver:  Solving for Uy, Initial residual = 0.0942154, Final residual = 1.80673e-07, No Iterations 3
DICPCG:  Solving for p, Initial residual = 0.0614701, Final residual = 0.00270283, No Iterations 79
DICPCG:  Solving for p, Initial residual = 0.103907, Final residual = 0.00492468, No Iterations 7
time step continuity errors : sum local = 3.7177e-06, global = 6.57006e-08, cumulative = 7.86572e-06
DICPCG:  Solving for p, Initial residual = 0.0362766, Final residual = 0.00158615, No Iterations 86
DICPCG:  Solving for p, Initial residual = 0.0179653, Final residual = 0.000852451, No Iterations 5
time step continuity errors : sum local = 3.75373e-06, global = 1.71539e-08, cumulative = 7.88288e-06
DICPCG:  Solving for p, Initial residual = 0.00308341, Final residual = 0.000138826, No Iterations 82
DICPCG:  Solving for p, Initial residual = 0.0029872, Final residual = 9.93079e-07, No Iterations 94
time step continuity errors : sum local = 3.77129e-09, global = -6.63694e-11, cumulative = 7.88281e-06
ExecutionTime = 2.11 s  ClockTime = 6 s

Courant Number mean: 0.184933 max: 0.453855
Time = 0.049

smoothSolver:  Solving for Ux, Initial residual = 0.0146001, Final residual = 1.5824e-06, No Iterations 2
smoothSolver:  Solving for Uy, Initial residual = 0.0916905, Final residual = 1.87216e-07, No Iterations 3
DICPCG:  Solving for p, Initial residual = 0.0624657, Final residual = 0.00274516, No Iterations 79
DICPCG:  Solving for p, Initial residual = 0.103371, Final residual = 0.00488286, No Iterations 7
time step continuity errors : sum local = 3.68402e-06, global = 6.64119e-08, cumulative = 7.94922e-06
DICPCG:  Solving for p, Initial residual = 0.0360976, Final residual = 0.00163931, No Iterations 86
DICPCG:  Solving for p, Initial residual = 0.017989, Final residual = 0.00085975, No Iterations 5
time step continuity errors : sum local = 3.75768e-06, global = 1.7073e-08, cumulative = 7.9663e-06
DICPCG:  Solving for p, Initial residual = 0.00310991, Final residual = 0.000140381, No Iterations 82
DICPCG:  Solving for p, Initial residual = 0.00302207, Final residual = 9.93019e-07, No Iterations 94
time step continuity errors : sum local = 3.73723e-09, global = -6.67267e-11, cumulative = 7.96623e-06
ExecutionTime = 2.15 s  ClockTime = 6 s

Courant Number mean: 0.187204 max: 0.459521
Time = 0.05

smoothSolver:  Solving for Ux, Initial residual = 0.0145059, Final residual = 1.65721e-06, No Iterations 2
smoothSolver:  Solving for Uy, Initial residual = 0.0892526, Final residual = 1.93803e-07, No Iterations 3
DICPCG:  Solving for p, Initial residual = 0.063189, Final residual = 0.00276969, No Iterations 79
DICPCG:  Solving for p, Initial residual = 0.102807, Final residual = 0.00488993, No Iterations 7
time step continuity errors : sum local = 3.68726e-06, global = 6.88066e-08, cumulative = 8.03504e-06
DICPCG:  Solving for p, Initial residual = 0.0359916, Final residual = 0.00163662, No Iterations 86
DICPCG:  Solving for p, Initial residual = 0.0180034, Final residual = 0.000860418, No Iterations 5
time step continuity errors : sum local = 3.7325e-06, global = 1.70536e-08, cumulative = 8.05209e-06
DICPCG:  Solving for p, Initial residual = 0.003135, Final residual = 0.000141279, No Iterations 82
DICPCG:  Solving for p, Initial residual = 0.00305221, Final residual = 9.94075e-07, No Iterations 94
time step continuity errors : sum local = 3.70769e-09, global = -6.55427e-11, cumulative = 8.05202e-06
ExecutionTime = 2.2 s  ClockTime = 6 s

Courant Number mean: 0.189457 max: 0.465144
Time = 0.051

smoothSolver:  Solving for Ux, Initial residual = 0.0144357, Final residual = 1.73116e-06, No Iterations 2
smoothSolver:  Solving for Uy, Initial residual = 0.0868965, Final residual = 2.00428e-07, No Iterations 3
DICPCG:  Solving for p, Initial residual = 0.0642172, Final residual = 0.00280723, No Iterations 79
DICPCG:  Solving for p, Initial residual = 0.102301, Final residual = 0.00487734, No Iterations 7
time step continuity errors : sum local = 3.67519e-06, global = 7.09955e-08, cumulative = 8.12302e-06
DICPCG:  Solving for p, Initial residual = 0.0358455, Final residual = 0.00160091, No Iterations 86
DICPCG:  Solving for p, Initial residual = 0.0180142, Final residual = 0.000858089, No Iterations 5
time step continuity errors : sum local = 3.69452e-06, global = 1.69729e-08, cumulative = 8.13999e-06
DICPCG:  Solving for p, Initial residual = 0.00315791, Final residual = 0.000141524, No Iterations 82
DICPCG:  Solving for p, Initial residual = 0.00308057, Final residual = 7.10997e-07, No Iterations 95
time step continuity errors : sum local = 2.62812e-09, global = -2.14543e-11, cumulative = 8.13997e-06
ExecutionTime = 2.23 s  ClockTime = 6 s

Courant Number mean: 0.191691 max: 0.470724
Time = 0.052

smoothSolver:  Solving for Ux, Initial residual = 0.0143509, Final residual = 1.81689e-06, No Iterations 2
smoothSolver:  Solving for Uy, Initial residual = 0.084619, Final residual = 2.07089e-07, No Iterations 3
DICPCG:  Solving for p, Initial residual = 0.0652504, Final residual = 0.00284376, No Iterations 79
DICPCG:  Solving for p, Initial residual = 0.101794, Final residual = 0.00485617, No Iterations 7
time step continuity errors : sum local = 3.65647e-06, global = 7.35659e-08, cumulative = 8.21354e-06
DICPCG:  Solving for p, Initial residual = 0.0356962, Final residual = 0.00162037, No Iterations 86
DICPCG:  Solving for p, Initial residual = 0.0180302, Final residual = 0.000861681, No Iterations 5
time step continuity errors : sum local = 3.68206e-06, global = 1.69156e-08, cumulative = 8.23045e-06
DICPCG:  Solving for p, Initial residual = 0.0031828, Final residual = 0.000142975, No Iterations 82
DICPCG:  Solving for p, Initial residual = 0.00311288, Final residual = 9.10533e-07, No Iterations 94
time step continuity errors : sum local = 3.33554e-09, global = -6.21527e-11, cumulative = 8.23039e-06
ExecutionTime = 2.27 s  ClockTime = 7 s

Courant Number mean: 0.193908 max: 0.47626
Time = 0.053

smoothSolver:  Solving for Ux, Initial residual = 0.0142248, Final residual = 1.90421e-06, No Iterations 2
smoothSolver:  Solving for Uy, Initial residual = 0.0824238, Final residual = 2.13779e-07, No Iterations 3
DICPCG:  Solving for p, Initial residual = 0.0660036, Final residual = 0.00287059, No Iterations 79
DICPCG:  Solving for p, Initial residual = 0.101206, Final residual = 0.00484921, No Iterations 7
time step continuity errors : sum local = 3.64827e-06, global = 7.60669e-08, cumulative = 8.30646e-06
DICPCG:  Solving for p, Initial residual = 0.0355334, Final residual = 0.001604, No Iterations 86
DICPCG:  Solving for p, Initial residual = 0.0180403, Final residual = 0.000860799, No Iterations 5
time step continuity errors : sum local = 3.65051e-06, global = 1.68564e-08, cumulative = 8.32331e-06
DICPCG:  Solving for p, Initial residual = 0.00320478, Final residual = 0.000143394, No Iterations 82
DICPCG:  Solving for p, Initial residual = 0.00314019, Final residual = 7.19648e-07, No Iterations 95
time step continuity errors : sum local = 2.61265e-09, global = -2.21179e-11, cumulative = 8.32329e-06
ExecutionTime = 2.29 s  ClockTime = 7 s

Courant Number mean: 0.196106 max: 0.481752
Time = 0.054

smoothSolver:  Solving for Ux, Initial residual = 0.0140799, Final residual = 1.98867e-06, No Iterations 2
smoothSolver:  Solving for Uy, Initial residual = 0.0803026, Final residual = 2.20495e-07, No Iterations 3
DICPCG:  Solving for p, Initial residual = 0.066767, Final residual = 0.00289494, No Iterations 79
DICPCG:  Solving for p, Initial residual = 0.100639, Final residual = 0.00482834, No Iterations 7
time step continuity errors : sum local = 3.62943e-06, global = 7.79491e-08, cumulative = 8.40124e-06
DICPCG:  Solving for p, Initial residual = 0.035395, Final residual = 0.00152042, No Iterations 86
DICPCG:  Solving for p, Initial residual = 0.0180477, Final residual = 0.000860134, No Iterations 5
time step continuity errors : sum local = 3.61998e-06, global = 1.61898e-08, cumulative = 8.41743e-06
DICPCG:  Solving for p, Initial residual = 0.00322565, Final residual = 0.000142263, No Iterations 82
DICPCG:  Solving for p, Initial residual = 0.00316774, Final residual = 7.25082e-07, No Iterations 95
time step continuity errors : sum local = 2.60874e-09, global = -2.20312e-11, cumulative = 8.41741e-06
ExecutionTime = 2.33 s  ClockTime = 7 s

Courant Number mean: 0.198286 max: 0.487199
Time = 0.055

smoothSolver:  Solving for Ux, Initial residual = 0.0139931, Final residual = 2.07247e-06, No Iterations 2
smoothSolver:  Solving for Uy, Initial residual = 0.0782515, Final residual = 2.2723e-07, No Iterations 3
DICPCG:  Solving for p, Initial residual = 0.0681446, Final residual = 0.00293315, No Iterations 79
DICPCG:  Solving for p, Initial residual = 0.100194, Final residual = 0.00482069, No Iterations 7
time step continuity errors : sum local = 3.62001e-06, global = 8.30712e-08, cumulative = 8.50048e-06
DICPCG:  Solving for p, Initial residual = 0.0352538, Final residual = 0.0015979, No Iterations 86
DICPCG:  Solving for p, Initial residual = 0.0180634, Final residual = 0.000860754, No Iterations 5
time step continuity errors : sum local = 3.59495e-06, global = 1.67596e-08, cumulative = 8.51724e-06
DICPCG:  Solving for p, Initial residual = 0.00324965, Final residual = 0.000144362, No Iterations 82
DICPCG:  Solving for p, Initial residual = 0.00319838, Final residual = 7.3049e-07, No Iterations 95
time step continuity errors : sum local = 2.60458e-09, global = -2.31026e-11, cumulative = 8.51722e-06
ExecutionTime = 2.37 s  ClockTime = 7 s

Courant Number mean: 0.200448 max: 0.492602
Time = 0.056

smoothSolver:  Solving for Ux, Initial residual = 0.013924, Final residual = 2.16061e-06, No Iterations 2
smoothSolver:  Solving for Uy, Initial residual = 0.0762655, Final residual = 2.33977e-07, No Iterations 3
DICPCG:  Solving for p, Initial residual = 0.0689412, Final residual = 0.00295535, No Iterations 79
DICPCG:  Solving for p, Initial residual = 0.0996292, Final residual = 0.00480082, No Iterations 7
time step continuity errors : sum local = 3.60106e-06, global = 8.54628e-08, cumulative = 8.60268e-06
DICPCG:  Solving for p, Initial residual = 0.0351062, Final residual = 0.00149573, No Iterations 86
DICPCG:  Solving for p, Initial residual = 0.0180643, Final residual = 0.000856902, No Iterations 5
time step continuity errors : sum local = 3.55137e-06, global = 1.6593e-08, cumulative = 8.61927e-06
DICPCG:  Solving for p, Initial residual = 0.0032712, Final residual = 0.00014488, No Iterations 82
DICPCG:  Solving for p, Initial residual = 0.00322515, Final residual = 7.37075e-07, No Iterations 95
time step continuity errors : sum local = 2.60434e-09, global = -2.33461e-11, cumulative = 8.61925e-06
ExecutionTime = 2.4 s  ClockTime = 7 s

Courant Number mean: 0.202592 max: 0.497959
Time = 0.057

smoothSolver:  Solving for Ux, Initial residual = 0.0138392, Final residual = 2.25974e-06, No Iterations 2
smoothSolver:  Solving for Uy, Initial residual = 0.074341, Final residual = 2.40737e-07, No Iterations 3
DICPCG:  Solving for p, Initial residual = 0.0700818, Final residual = 0.00298093, No Iterations 79
DICPCG:  Solving for p, Initial residual = 0.09911, Final residual = 0.00479874, No Iterations 7
time step continuity errors : sum local = 3.59522e-06, global = 9.06737e-08, cumulative = 8.70992e-06
DICPCG:  Solving for p, Initial residual = 0.034954, Final residual = 0.00156247, No Iterations 86
DICPCG:  Solving for p, Initial residual = 0.0180799, Final residual = 0.000859178, No Iterations 5
time step continuity errors : sum local = 3.53325e-06, global = 1.66243e-08, cumulative = 8.72655e-06
DICPCG:  Solving for p, Initial residual = 0.00329233, Final residual = 0.000145702, No Iterations 82
DICPCG:  Solving for p, Initial residual = 0.00325195, Final residual = 7.38485e-07, No Iterations 95
time step continuity errors : sum local = 2.58567e-09, global = -2.36187e-11, cumulative = 8.72652e-06
ExecutionTime = 2.43 s  ClockTime = 7 s

Courant Number mean: 0.204718 max: 0.503271
Time = 0.058

smoothSolver:  Solving for Ux, Initial residual = 0.0137811, Final residual = 2.36062e-06, No Iterations 2
smoothSolver:  Solving for Uy, Initial residual = 0.0724737, Final residual = 2.47504e-07, No Iterations 3
DICPCG:  Solving for p, Initial residual = 0.0712483, Final residual = 0.00299314, No Iterations 79
DICPCG:  Solving for p, Initial residual = 0.0986469, Final residual = 0.00474191, No Iterations 7
time step continuity errors : sum local = 3.54678e-06, global = 9.4191e-08, cumulative = 8.82071e-06
DICPCG:  Solving for p, Initial residual = 0.0348141, Final residual = 0.00154213, No Iterations 86
DICPCG:  Solving for p, Initial residual = 0.0180857, Final residual = 0.000860827, No Iterations 5
time step continuity errors : sum local = 3.51252e-06, global = 1.65209e-08, cumulative = 8.83724e-06
DICPCG:  Solving for p, Initial residual = 0.00331338, Final residual = 0.000146716, No Iterations 82
DICPCG:  Solving for p, Initial residual = 0.00327986, Final residual = 7.45282e-07, No Iterations 95
time step continuity errors : sum local = 2.58584e-09, global = -2.41973e-11, cumulative = 8.83721e-06
ExecutionTime = 2.46 s  ClockTime = 7 s

Courant Number mean: 0.206827 max: 0.508536
Time = 0.059

smoothSolver:  Solving for Ux, Initial residual = 0.0137233, Final residual = 2.45102e-06, No Iterations 2
smoothSolver:  Solving for Uy, Initial residual = 0.0706622, Final residual = 2.54258e-07, No Iterations 3
DICPCG:  Solving for p, Initial residual = 0.0720437, Final residual = 0.00301361, No Iterations 79
DICPCG:  Solving for p, Initial residual = 0.0980742, Final residual = 0.00470829, No Iterations 7
time step continuity errors : sum local = 3.5163e-06, global = 9.77168e-08, cumulative = 8.93493e-06
DICPCG:  Solving for p, Initial residual = 0.0346628, Final residual = 0.00158449, No Iterations 86
DICPCG:  Solving for p, Initial residual = 0.0181015, Final residual = 0.000865934, No Iterations 5
time step continuity errors : sum local = 3.50558e-06, global = 1.64436e-08, cumulative = 8.95137e-06
DICPCG:  Solving for p, Initial residual = 0.0033351, Final residual = 0.000146993, No Iterations 82
DICPCG:  Solving for p, Initial residual = 0.00330555, Final residual = 7.4462e-07, No Iterations 95
time step continuity errors : sum local = 2.55999e-09, global = -2.47134e-11, cumulative = 8.95135e-06
ExecutionTime = 2.49 s  ClockTime = 7 s

Courant Number mean: 0.208917 max: 0.513757
Time = 0.06

smoothSolver:  Solving for Ux, Initial residual = 0.0136907, Final residual = 2.56656e-06, No Iterations 2
smoothSolver:  Solving for Uy, Initial residual = 0.0689051, Final residual = 2.61001e-07, No Iterations 3
DICPCG:  Solving for p, Initial residual = 0.0735144, Final residual = 0.00301265, No Iterations 79
DICPCG:  Solving for p, Initial residual = 0.0975763, Final residual = 0.00471914, No Iterations 7
time step continuity errors : sum local = 3.5187e-06, global = 1.06008e-07, cumulative = 9.05735e-06
DICPCG:  Solving for p, Initial residual = 0.0345235, Final residual = 0.00158307, No Iterations 86
DICPCG:  Solving for p, Initial residual = 0.018105, Final residual = 0.000865778, No Iterations 5
time step continuity errors : sum local = 3.4773e-06, global = 1.64211e-08, cumulative = 9.07378e-06
DICPCG:  Solving for p, Initial residual = 0.00335437, Final residual = 0.000148573, No Iterations 82
DICPCG:  Solving for p, Initial residual = 0.00333316, Final residual = 7.45496e-07, No Iterations 95
time step continuity errors : sum local = 2.53963e-09, global = -2.43072e-11, cumulative = 9.07375e-06
ExecutionTime = 2.56 s  ClockTime = 7 s

Courant Number mean: 0.210989 max: 0.518932
Time = 0.061

smoothSolver:  Solving for Ux, Initial residual = 0.0136578, Final residual = 2.67027e-06, No Iterations 2
smoothSolver:  Solving for Uy, Initial residual = 0.0672042, Final residual = 2.67739e-07, No Iterations 3
DICPCG:  Solving for p, Initial residual = 0.0744146, Final residual = 0.00300714, No Iterations 79
DICPCG:  Solving for p, Initial residual = 0.0969494, Final residual = 0.00470524, No Iterations 7
time step continuity errors : sum local = 3.50319e-06, global = 1.10903e-07, cumulative = 9.18465e-06
DICPCG:  Solving for p, Initial residual = 0.0343494, Final residual = 0.00143872, No Iterations 86
DICPCG:  Solving for p, Initial residual = 0.0180968, Final residual = 0.000858268, No Iterations 5
time step continuity errors : sum local = 3.41997e-06, global = 1.62511e-08, cumulative = 9.20091e-06
DICPCG:  Solving for p, Initial residual = 0.00337354, Final residual = 0.000141926, No Iterations 82
DICPCG:  Solving for p, Initial residual = 0.00335331, Final residual = 7.62117e-07, No Iterations 95
time step continuity errors : sum local = 2.57259e-09, global = -2.50514e-11, cumulative = 9.20088e-06
ExecutionTime = 2.61 s  ClockTime = 7 s

Courant Number mean: 0.213044 max: 0.524062
Time = 0.062

smoothSolver:  Solving for Ux, Initial residual = 0.0136069, Final residual = 2.77495e-06, No Iterations 2
smoothSolver:  Solving for Uy, Initial residual = 0.0655544, Final residual = 2.74468e-07, No Iterations 3
DICPCG:  Solving for p, Initial residual = 0.0756226, Final residual = 0.00298324, No Iterations 79
DICPCG:  Solving for p, Initial residual = 0.0964115, Final residual = 0.00469953, No Iterations 7
time step continuity errors : sum local = 3.4902e-06, global = 1.1876e-07, cumulative = 9.31964e-06
DICPCG:  Solving for p, Initial residual = 0.034228, Final residual = 0.00144472, No Iterations 86
DICPCG:  Solving for p, Initial residual = 0.0181076, Final residual = 0.000864886, No Iterations 5
time step continuity errors : sum local = 3.41841e-06, global = 1.56466e-08, cumulative = 9.33529e-06
DICPCG:  Solving for p, Initial residual = 0.00339081, Final residual = 0.00014738, No Iterations 82
DICPCG:  Solving for p, Initial residual = 0.00338244, Final residual = 7.665e-07, No Iterations 95
time step continuity errors : sum local = 2.56328e-09, global = -2.50042e-11, cumulative = 9.33526e-06
ExecutionTime = 2.64 s  ClockTime = 7 s

Courant Number mean: 0.21508 max: 0.529146
Time = 0.063

smoothSolver:  Solving for Ux, Initial residual = 0.0135218, Final residual = 2.87717e-06, No Iterations 2
smoothSolver:  Solving for Uy, Initial residual = 0.063957, Final residual = 2.81172e-07, No Iterations 3
DICPCG:  Solving for p, Initial residual = 0.0767952, Final residual = 0.00293426, No Iterations 79
DICPCG:  Solving for p, Initial residual = 0.0958015, Final residual = 0.00464675, No Iterations 7
time step continuity errors : sum local = 3.44344e-06, global = 1.26098e-07, cumulative = 9.46136e-06
DICPCG:  Solving for p, Initial residual = 0.0340832, Final residual = 0.00155542, No Iterations 86
DICPCG:  Solving for p, Initial residual = 0.0181176, Final residual = 0.00086573, No Iterations 5
time step continuity errors : sum local = 3.39413e-06, global = 1.62785e-08, cumulative = 9.47764e-06
DICPCG:  Solving for p, Initial residual = 0.00341198, Final residual = 0.000150435, No Iterations 82
DICPCG:  Solving for p, Initial residual = 0.00341013, Final residual = 7.67592e-07, No Iterations 95
time step continuity errors : sum local = 2.54309e-09, global = -2.58364e-11, cumulative = 9.47761e-06
ExecutionTime = 2.68 s  ClockTime = 7 s

Courant Number mean: 0.217098 max: 0.534185
Time = 0.064

smoothSolver:  Solving for Ux, Initial residual = 0.0134628, Final residual = 2.97435e-06, No Iterations 2
smoothSolver:  Solving for Uy, Initial residual = 0.0624014, Final residual = 2.87845e-07, No Iterations 3
DICPCG:  Solving for p, Initial residual = 0.077714, Final residual = 0.00287839, No Iterations 79
DICPCG:  Solving for p, Initial residual = 0.0951289, Final residual = 0.00459621, No Iterations 7
time step continuity errors : sum local = 3.39821e-06, global = 1.31681e-07, cumulative = 9.60929e-06
DICPCG:  Solving for p, Initial residual = 0.0339236, Final residual = 0.00143056, No Iterations 86
DICPCG:  Solving for p, Initial residual = 0.0181103, Final residual = 0.000860527, No Iterations 5
time step continuity errors : sum local = 3.34631e-06, global = 1.61322e-08, cumulative = 9.62543e-06
DICPCG:  Solving for p, Initial residual = 0.00343162, Final residual = 0.000148854, No Iterations 82
DICPCG:  Solving for p, Initial residual = 0.00343224, Final residual = 7.67625e-07, No Iterations 95
time step continuity errors : sum local = 2.51947e-09, global = -2.44955e-11, cumulative = 9.6254e-06
ExecutionTime = 2.71 s  ClockTime = 7 s

Courant Number mean: 0.219097 max: 0.539179
Time = 0.065

smoothSolver:  Solving for Ux, Initial residual = 0.0134131, Final residual = 3.06825e-06, No Iterations 2
smoothSolver:  Solving for Uy, Initial residual = 0.0608872, Final residual = 2.94477e-07, No Iterations 3
DICPCG:  Solving for p, Initial residual = 0.0793084, Final residual = 0.00387102, No Iterations 78
DICPCG:  Solving for p, Initial residual = 0.0978702, Final residual = 0.00455677, No Iterations 8
[...]
DICPCG:  Solving for p, Initial residual = 6.51002e-06, Final residual = 9.79485e-07, No Iterations 64
time step continuity errors : sum local = 1.28767e-10, global = 2.59461e-13, cumulative = 4.68872e-05
ExecutionTime = 119.46 s  ClockTime = 271 s

Courant Number mean: 0.0623077 max: 0.204218
Time = 2.985

smoothSolver:  Solving for Ux, Initial residual = 0.00523687, Final residual = 9.3937e-08, No Iterations 2
smoothSolver:  Solving for Uy, Initial residual = 0.000996696, Final residual = 3.10033e-06, No Iterations 1
DICPCG:  Solving for p, Initial residual = 0.137909, Final residual = 0.00668497, No Iterations 33
DICPCG:  Solving for p, Initial residual = 0.0135753, Final residual = 0.000513955, No Iterations 77
time step continuity errors : sum local = 5.53083e-08, global = 2.7934e-10, cumulative = 4.68875e-05
DICPCG:  Solving for p, Initial residual = 0.00213771, Final residual = 9.45497e-05, No Iterations 10
DICPCG:  Solving for p, Initial residual = 0.000174679, Final residual = 7.31227e-06, No Iterations 79
time step continuity errors : sum local = 9.57379e-10, global = -5.16602e-12, cumulative = 4.68875e-05
DICPCG:  Solving for p, Initial residual = 5.79784e-05, Final residual = 2.87408e-06, No Iterations 13
DICPCG:  Solving for p, Initial residual = 5.04088e-06, Final residual = 9.27598e-07, No Iterations 71
time step continuity errors : sum local = 1.21614e-10, global = 2.8027e-12, cumulative = 4.68875e-05
ExecutionTime = 119.49 s  ClockTime = 271 s

Courant Number mean: 0.0622924 max: 0.204187
Time = 2.986

smoothSolver:  Solving for Ux, Initial residual = 0.00522789, Final residual = 9.36549e-08, No Iterations 2
smoothSolver:  Solving for Uy, Initial residual = 0.00099715, Final residual = 3.10044e-06, No Iterations 1
DICPCG:  Solving for p, Initial residual = 0.161961, Final residual = 0.00784483, No Iterations 33
DICPCG:  Solving for p, Initial residual = 0.0170096, Final residual = 0.000621306, No Iterations 77
time step continuity errors : sum local = 6.42531e-08, global = 4.89509e-10, cumulative = 4.6888e-05
DICPCG:  Solving for p, Initial residual = 0.0025415, Final residual = 0.000110302, No Iterations 10
DICPCG:  Solving for p, Initial residual = 0.000201983, Final residual = 9.568e-06, No Iterations 70
time step continuity errors : sum local = 1.25036e-09, global = -1.0259e-11, cumulative = 4.6888e-05
DICPCG:  Solving for p, Initial residual = 6.75576e-05, Final residual = 3.00571e-06, No Iterations 13
DICPCG:  Solving for p, Initial residual = 5.83417e-06, Final residual = 8.28685e-07, No Iterations 72
time step continuity errors : sum local = 1.08472e-10, global = 1.60221e-12, cumulative = 4.6888e-05
ExecutionTime = 119.52 s  ClockTime = 271 s

Courant Number mean: 0.0622766 max: 0.20415
Time = 2.987

smoothSolver:  Solving for Ux, Initial residual = 0.00522271, Final residual = 9.30706e-08, No Iterations 2
smoothSolver:  Solving for Uy, Initial residual = 0.000997147, Final residual = 3.0993e-06, No Iterations 1
DICPCG:  Solving for p, Initial residual = 0.169459, Final residual = 0.00828821, No Iterations 33
DICPCG:  Solving for p, Initial residual = 0.0178182, Final residual = 0.000655645, No Iterations 77
time step continuity errors : sum local = 6.86828e-08, global = 4.72187e-10, cumulative = 4.68884e-05
DICPCG:  Solving for p, Initial residual = 0.00270759, Final residual = 0.000134549, No Iterations 9
DICPCG:  Solving for p, Initial residual = 0.000216707, Final residual = 9.59978e-06, No Iterations 71
time step continuity errors : sum local = 1.25501e-09, global = 3.50932e-11, cumulative = 4.68885e-05
DICPCG:  Solving for p, Initial residual = 7.55826e-05, Final residual = 3.56603e-06, No Iterations 21
DICPCG:  Solving for p, Initial residual = 6.57417e-06, Final residual = 9.3351e-07, No Iterations 70
time step continuity errors : sum local = 1.22252e-10, global = 1.34184e-12, cumulative = 4.68885e-05
ExecutionTime = 119.54 s  ClockTime = 271 s

Courant Number mean: 0.0622608 max: 0.204108
Time = 2.988

smoothSolver:  Solving for Ux, Initial residual = 0.00521458, Final residual = 9.1685e-08, No Iterations 2
smoothSolver:  Solving for Uy, Initial residual = 0.000997325, Final residual = 3.0989e-06, No Iterations 1
DICPCG:  Solving for p, Initial residual = 0.200027, Final residual = 0.00967336, No Iterations 33
DICPCG:  Solving for p, Initial residual = 0.0203371, Final residual = 0.000764219, No Iterations 77
time step continuity errors : sum local = 8.50885e-08, global = 4.73143e-10, cumulative = 4.68889e-05
DICPCG:  Solving for p, Initial residual = 0.00331301, Final residual = 0.000140576, No Iterations 10
DICPCG:  Solving for p, Initial residual = 0.000257096, Final residual = 8.99053e-06, No Iterations 78
time step continuity errors : sum local = 1.17202e-09, global = 8.0178e-12, cumulative = 4.6889e-05
DICPCG:  Solving for p, Initial residual = 8.76802e-05, Final residual = 4.27732e-06, No Iterations 17
DICPCG:  Solving for p, Initial residual = 7.90956e-06, Final residual = 8.58873e-07, No Iterations 73
time step continuity errors : sum local = 1.12199e-10, global = 8.23498e-13, cumulative = 4.6889e-05
ExecutionTime = 119.57 s  ClockTime = 271 s

Courant Number mean: 0.0622455 max: 0.204059
Time = 2.989

smoothSolver:  Solving for Ux, Initial residual = 0.00521746, Final residual = 9.341e-08, No Iterations 2
smoothSolver:  Solving for Uy, Initial residual = 0.000997122, Final residual = 3.097e-06, No Iterations 1
DICPCG:  Solving for p, Initial residual = 0.215304, Final residual = 0.0103613, No Iterations 33
DICPCG:  Solving for p, Initial residual = 0.0215506, Final residual = 0.000810268, No Iterations 77
time step continuity errors : sum local = 9.26898e-08, global = 4.80939e-10, cumulative = 4.68894e-05
DICPCG:  Solving for p, Initial residual = 0.00361984, Final residual = 0.000156203, No Iterations 10
DICPCG:  Solving for p, Initial residual = 0.000281666, Final residual = 1.3206e-05, No Iterations 73
time step continuity errors : sum local = 1.71542e-09, global = 2.33429e-11, cumulative = 4.68895e-05
DICPCG:  Solving for p, Initial residual = 9.39207e-05, Final residual = 4.46872e-06, No Iterations 19
DICPCG:  Solving for p, Initial residual = 8.32841e-06, Final residual = 9.00568e-07, No Iterations 72
time step continuity errors : sum local = 1.17241e-10, global = -7.97211e-13, cumulative = 4.68895e-05
ExecutionTime = 119.59 s  ClockTime = 271 s

Courant Number mean: 0.0622304 max: 0.204002
Time = 2.99

smoothSolver:  Solving for Ux, Initial residual = 0.00521785, Final residual = 9.47581e-08, No Iterations 2
smoothSolver:  Solving for Uy, Initial residual = 0.000997554, Final residual = 3.09961e-06, No Iterations 1
DICPCG:  Solving for p, Initial residual = 0.240909, Final residual = 0.011776, No Iterations 33
DICPCG:  Solving for p, Initial residual = 0.0237331, Final residual = 0.000902979, No Iterations 77
time step continuity errors : sum local = 1.0948e-07, global = 7.21517e-10, cumulative = 4.68902e-05
DICPCG:  Solving for p, Initial residual = 0.00410025, Final residual = 0.000201901, No Iterations 9
DICPCG:  Solving for p, Initial residual = 0.000316511, Final residual = 1.41828e-05, No Iterations 74
time step continuity errors : sum local = 1.84153e-09, global = -4.75874e-11, cumulative = 4.68901e-05
DICPCG:  Solving for p, Initial residual = 0.00010184, Final residual = 4.99508e-06, No Iterations 19
DICPCG:  Solving for p, Initial residual = 9.46676e-06, Final residual = 8.61908e-07, No Iterations 73
time step continuity errors : sum local = 1.12204e-10, global = 1.88749e-12, cumulative = 4.68901e-05
ExecutionTime = 119.65 s  ClockTime = 272 s

Courant Number mean: 0.0622157 max: 0.203941
Time = 2.991

smoothSolver:  Solving for Ux, Initial residual = 0.00521979, Final residual = 9.42796e-08, No Iterations 2
smoothSolver:  Solving for Uy, Initial residual = 0.000997358, Final residual = 3.09678e-06, No Iterations 1
DICPCG:  Solving for p, Initial residual = 0.260413, Final residual = 0.0127331, No Iterations 33
DICPCG:  Solving for p, Initial residual = 0.0252743, Final residual = 0.000994364, No Iterations 77
time step continuity errors : sum local = 1.25259e-07, global = 6.27329e-10, cumulative = 4.68908e-05
DICPCG:  Solving for p, Initial residual = 0.00457016, Final residual = 0.000216807, No Iterations 9
DICPCG:  Solving for p, Initial residual = 0.000342507, Final residual = 1.53638e-05, No Iterations 73
time step continuity errors : sum local = 1.98563e-09, global = -8.16494e-11, cumulative = 4.68907e-05
DICPCG:  Solving for p, Initial residual = 0.000112326, Final residual = 5.39979e-06, No Iterations 19
DICPCG:  Solving for p, Initial residual = 1.04287e-05, Final residual = 8.98826e-07, No Iterations 71
time step continuity errors : sum local = 1.16503e-10, global = 3.66289e-12, cumulative = 4.68907e-05
ExecutionTime = 119.68 s  ClockTime = 272 s

Courant Number mean: 0.0622009 max: 0.203874
Time = 2.992

smoothSolver:  Solving for Ux, Initial residual = 0.00522179, Final residual = 9.38599e-08, No Iterations 2
smoothSolver:  Solving for Uy, Initial residual = 0.00099643, Final residual = 3.09472e-06, No Iterations 1
DICPCG:  Solving for p, Initial residual = 0.277586, Final residual = 0.0137834, No Iterations 33
DICPCG:  Solving for p, Initial residual = 0.0267367, Final residual = 0.00102718, No Iterations 77
time step continuity errors : sum local = 1.3454e-07, global = 7.76408e-10, cumulative = 4.68915e-05
DICPCG:  Solving for p, Initial residual = 0.00493618, Final residual = 0.000232764, No Iterations 9
DICPCG:  Solving for p, Initial residual = 0.000368908, Final residual = 1.60961e-05, No Iterations 73
time step continuity errors : sum local = 2.07581e-09, global = -5.95895e-11, cumulative = 4.68914e-05
DICPCG:  Solving for p, Initial residual = 0.000119421, Final residual = 5.6912e-06, No Iterations 16
DICPCG:  Solving for p, Initial residual = 1.12827e-05, Final residual = 7.60087e-07, No Iterations 73
time step continuity errors : sum local = 9.83361e-11, global = -3.71053e-13, cumulative = 4.68914e-05
ExecutionTime = 119.71 s  ClockTime = 272 s

Courant Number mean: 0.0621857 max: 0.203801
Time = 2.993

smoothSolver:  Solving for Ux, Initial residual = 0.00521439, Final residual = 9.35307e-08, No Iterations 2
smoothSolver:  Solving for Uy, Initial residual = 0.000996801, Final residual = 3.09478e-06, No Iterations 1
DICPCG:  Solving for p, Initial residual = 0.305419, Final residual = 0.0152547, No Iterations 33
DICPCG:  Solving for p, Initial residual = 0.0287491, Final residual = 0.00110199, No Iterations 77
time step continuity errors : sum local = 1.53968e-07, global = 9.6452e-10, cumulative = 4.68924e-05
DICPCG:  Solving for p, Initial residual = 0.00561822, Final residual = 0.000257912, No Iterations 9
DICPCG:  Solving for p, Initial residual = 0.00041596, Final residual = 2.04897e-05, No Iterations 73
time step continuity errors : sum local = 2.64217e-09, global = -3.12487e-11, cumulative = 4.68923e-05
DICPCG:  Solving for p, Initial residual = 0.000134377, Final residual = 6.69634e-06, No Iterations 16
DICPCG:  Solving for p, Initial residual = 1.3077e-05, Final residual = 7.38651e-07, No Iterations 74
time step continuity errors : sum local = 9.55993e-11, global = 6.08931e-13, cumulative = 4.68923e-05
ExecutionTime = 119.74 s  ClockTime = 272 s

Courant Number mean: 0.0621705 max: 0.203723
Time = 2.994

smoothSolver:  Solving for Ux, Initial residual = 0.00520914, Final residual = 9.32699e-08, No Iterations 2
smoothSolver:  Solving for Uy, Initial residual = 0.00099685, Final residual = 3.09384e-06, No Iterations 1
DICPCG:  Solving for p, Initial residual = 0.321552, Final residual = 0.0156864, No Iterations 33
DICPCG:  Solving for p, Initial residual = 0.0295306, Final residual = 0.00115547, No Iterations 77
time step continuity errors : sum local = 1.67239e-07, global = 9.49558e-10, cumulative = 4.68933e-05
DICPCG:  Solving for p, Initial residual = 0.00609426, Final residual = 0.000280725, No Iterations 9
DICPCG:  Solving for p, Initial residual = 0.000449371, Final residual = 1.77736e-05, No Iterations 74
time step continuity errors : sum local = 2.28515e-09, global = -8.57854e-11, cumulative = 4.68932e-05
DICPCG:  Solving for p, Initial residual = 0.000144202, Final residual = 6.31998e-06, No Iterations 22
DICPCG:  Solving for p, Initial residual = 1.32063e-05, Final residual = 7.96142e-07, No Iterations 67
time step continuity errors : sum local = 1.02768e-10, global = -2.29317e-12, cumulative = 4.68932e-05
ExecutionTime = 119.76 s  ClockTime = 272 s

Courant Number mean: 0.062155 max: 0.203639
Time = 2.995

smoothSolver:  Solving for Ux, Initial residual = 0.00520698, Final residual = 9.28103e-08, No Iterations 2
smoothSolver:  Solving for Uy, Initial residual = 0.000996949, Final residual = 3.09052e-06, No Iterations 1
DICPCG:  Solving for p, Initial residual = 0.34692, Final residual = 0.0170771, No Iterations 33
DICPCG:  Solving for p, Initial residual = 0.0312926, Final residual = 0.00115779, No Iterations 77
time step continuity errors : sum local = 1.77703e-07, global = 1.28469e-09, cumulative = 4.68945e-05
DICPCG:  Solving for p, Initial residual = 0.00677918, Final residual = 0.000319167, No Iterations 9
DICPCG:  Solving for p, Initial residual = 0.000512613, Final residual = 2.32347e-05, No Iterations 74
time step continuity errors : sum local = 2.98581e-09, global = 8.8164e-11, cumulative = 4.68946e-05
DICPCG:  Solving for p, Initial residual = 0.000159275, Final residual = 7.84096e-06, No Iterations 19
DICPCG:  Solving for p, Initial residual = 1.49187e-05, Final residual = 9.06694e-07, No Iterations 74
time step continuity errors : sum local = 1.17026e-10, global = -2.96621e-13, cumulative = 4.68946e-05
ExecutionTime = 119.79 s  ClockTime = 272 s

Courant Number mean: 0.0621393 max: 0.20355
Time = 2.996

smoothSolver:  Solving for Ux, Initial residual = 0.00520448, Final residual = 9.24563e-08, No Iterations 2
smoothSolver:  Solving for Uy, Initial residual = 0.000996921, Final residual = 3.08965e-06, No Iterations 1
DICPCG:  Solving for p, Initial residual = 0.365823, Final residual = 0.0179611, No Iterations 33
DICPCG:  Solving for p, Initial residual = 0.0323252, Final residual = 0.00116128, No Iterations 77
time step continuity errors : sum local = 1.86835e-07, global = 1.63555e-09, cumulative = 4.68962e-05
DICPCG:  Solving for p, Initial residual = 0.0072783, Final residual = 0.000336526, No Iterations 9
DICPCG:  Solving for p, Initial residual = 0.000538764, Final residual = 2.62486e-05, No Iterations 75
time step continuity errors : sum local = 3.38503e-09, global = 1.66286e-10, cumulative = 4.68964e-05
DICPCG:  Solving for p, Initial residual = 0.000166067, Final residual = 8.22597e-06, No Iterations 20
DICPCG:  Solving for p, Initial residual = 1.59419e-05, Final residual = 9.60548e-07, No Iterations 77
time step continuity errors : sum local = 1.24457e-10, global = 1.26436e-12, cumulative = 4.68964e-05
ExecutionTime = 119.81 s  ClockTime = 272 s

Courant Number mean: 0.0621248 max: 0.203455
Time = 2.997

smoothSolver:  Solving for Ux, Initial residual = 0.00520415, Final residual = 9.22477e-08, No Iterations 2
smoothSolver:  Solving for Uy, Initial residual = 0.000996817, Final residual = 3.08884e-06, No Iterations 1
DICPCG:  Solving for p, Initial residual = 0.389461, Final residual = 0.0190917, No Iterations 33
DICPCG:  Solving for p, Initial residual = 0.0338142, Final residual = 0.00132129, No Iterations 77
time step continuity errors : sum local = 2.23527e-07, global = 1.41903e-09, cumulative = 4.68978e-05
DICPCG:  Solving for p, Initial residual = 0.00810388, Final residual = 0.00036084, No Iterations 9
DICPCG:  Solving for p, Initial residual = 0.000581058, Final residual = 2.59382e-05, No Iterations 75
time step continuity errors : sum local = 3.32785e-09, global = -4.58627e-11, cumulative = 4.68977e-05
DICPCG:  Solving for p, Initial residual = 0.000187647, Final residual = 8.45457e-06, No Iterations 22
DICPCG:  Solving for p, Initial residual = 1.77323e-05, Final residual = 9.25843e-07, No Iterations 73
time step continuity errors : sum local = 1.19425e-10, global = -4.41262e-14, cumulative = 4.68977e-05
ExecutionTime = 119.84 s  ClockTime = 272 s

Courant Number mean: 0.0621104 max: 0.203355
Time = 2.998

smoothSolver:  Solving for Ux, Initial residual = 0.00518579, Final residual = 9.16966e-08, No Iterations 2
smoothSolver:  Solving for Uy, Initial residual = 0.000997039, Final residual = 3.07986e-06, No Iterations 1
DICPCG:  Solving for p, Initial residual = 0.407314, Final residual = 0.0196144, No Iterations 33
DICPCG:  Solving for p, Initial residual = 0.0344548, Final residual = 0.0012365, No Iterations 77
time step continuity errors : sum local = 2.20465e-07, global = 1.9267e-09, cumulative = 4.68997e-05
DICPCG:  Solving for p, Initial residual = 0.00868394, Final residual = 0.000412775, No Iterations 9
DICPCG:  Solving for p, Initial residual = 0.000655033, Final residual = 3.19142e-05, No Iterations 75
time step continuity errors : sum local = 4.10025e-09, global = 2.04223e-10, cumulative = 4.68999e-05
DICPCG:  Solving for p, Initial residual = 0.000197143, Final residual = 8.68782e-06, No Iterations 22
DICPCG:  Solving for p, Initial residual = 1.81055e-05, Final residual = 9.45059e-07, No Iterations 70
time step continuity errors : sum local = 1.22106e-10, global = -4.92577e-12, cumulative = 4.68999e-05
ExecutionTime = 119.91 s  ClockTime = 272 s

Courant Number mean: 0.0620975 max: 0.203249
Time = 2.999

smoothSolver:  Solving for Ux, Initial residual = 0.0051858, Final residual = 9.15134e-08, No Iterations 2
smoothSolver:  Solving for Uy, Initial residual = 0.000996728, Final residual = 3.07846e-06, No Iterations 1
DICPCG:  Solving for p, Initial residual = 0.433221, Final residual = 0.0208547, No Iterations 33
DICPCG:  Solving for p, Initial residual = 0.0360882, Final residual = 0.00136581, No Iterations 77
time step continuity errors : sum local = 2.55772e-07, global = 1.75102e-09, cumulative = 4.69016e-05
DICPCG:  Solving for p, Initial residual = 0.009765, Final residual = 0.000473741, No Iterations 9
DICPCG:  Solving for p, Initial residual = 0.000739176, Final residual = 3.68265e-05, No Iterations 78
time step continuity errors : sum local = 4.67525e-09, global = 2.37798e-10, cumulative = 4.69019e-05
DICPCG:  Solving for p, Initial residual = 0.000228542, Final residual = 1.07695e-05, No Iterations 22
DICPCG:  Solving for p, Initial residual = 2.02478e-05, Final residual = 8.23255e-07, No Iterations 80
time step continuity errors : sum local = 1.0517e-10, global = 4.90948e-13, cumulative = 4.69019e-05
ExecutionTime = 119.95 s  ClockTime = 272 s

Courant Number mean: 0.0620844 max: 0.203137
Time = 3

smoothSolver:  Solving for Ux, Initial residual = 0.00518278, Final residual = 9.11666e-08, No Iterations 2
smoothSolver:  Solving for Uy, Initial residual = 0.000996749, Final residual = 3.07915e-06, No Iterations 1
DICPCG:  Solving for p, Initial residual = 0.449431, Final residual = 0.0221204, No Iterations 33
DICPCG:  Solving for p, Initial residual = 0.0373729, Final residual = 0.00148267, No Iterations 77
time step continuity errors : sum local = 2.90202e-07, global = 1.63247e-09, cumulative = 4.69035e-05
DICPCG:  Solving for p, Initial residual = 0.0104434, Final residual = 0.000472634, No Iterations 9
DICPCG:  Solving for p, Initial residual = 0.000758136, Final residual = 3.29322e-05, No Iterations 78
time step continuity errors : sum local = 4.17074e-09, global = 2.23882e-10, cumulative = 4.69037e-05
DICPCG:  Solving for p, Initial residual = 0.000237076, Final residual = 1.07715e-05, No Iterations 23
DICPCG:  Solving for p, Initial residual = 2.13875e-05, Final residual = 9.98333e-07, No Iterations 79
time step continuity errors : sum local = 1.273e-10, global = 8.60959e-13, cumulative = 4.69037e-05
ExecutionTime = 120 s  ClockTime = 272 s

End

