/*---------------------------------------------------------------------------*\
  =========                 |
  \\      /  F ield         | OpenFOAM: The Open Source CFD Toolbox
   \\    /   O peration     | Website:  https://openfoam.org
    \\  /    A nd           | Version:  9
     \\/     M anipulation  |
\*---------------------------------------------------------------------------*/
Build  : 9-b456138dc4bc
Exec   : icoFoam
Date   : Mar 28 2022
Time   : 15:55:57
Host   : "32832f43405e"
PID    : 129
I/O    : uncollated
Case   : //data
nProcs : 1
sigFpe : Enabling floating point exception trapping (FOAM_SIGFPE).
fileModificationChecking : Monitoring run-time modified files using timeStampMaster (fileModificationSkew 10)
allowSystemOperations : Allowing user-supplied system call operations

// * * * * * * * * * * * * * * * * * * * * * * * * * * * * * * * * * * * * * //
Create time

Create mesh for time = 0

Reading transportProperties

Reading field p

Reading field U

Reading/calculating face flux field phi


Starting time loop

Time = 0.001

Courant Number mean: 0.000198718 max: 0.0846995
smoothSolver:  Solving for Ux, Initial residual = 0, Final residual = 0, No Iterations 0
smoothSolver:  Solving for Uy, Initial residual = 1, Final residual = 8.86501e-06, No Iterations 2
DICPCG:  Solving for p, Initial residual = 1, Final residual = 0.0490792, No Iterations 39
time step continuity errors : sum local = 0.00814932, global = -0.00154213, cumulative = -0.00154213
DICPCG:  Solving for p, Initial residual = 0.060662, Final residual = 9.43277e-07, No Iterations 227
time step continuity errors : sum local = 2.68434e-07, global = 2.76653e-10, cumulative = -0.00154213
ExecutionTime = 0.3 s  ClockTime = 1 s

Time = 0.002

Courant Number mean: 0.146604 max: 0.21919
smoothSolver:  Solving for Ux, Initial residual = 0.296334, Final residual = 1.4586e-06, No Iterations 3
smoothSolver:  Solving for Uy, Initial residual = 0.975099, Final residual = 7.95194e-06, No Iterations 3
DICPCG:  Solving for p, Initial residual = 0.0189367, Final residual = 0.000918551, No Iterations 160
time step continuity errors : sum local = 0.000210585, global = -2.49959e-06, cumulative = -0.00154463
DICPCG:  Solving for p, Initial residual = 0.0435642, Final residual = 8.89998e-07, No Iterations 227
time step continuity errors : sum local = 4.84648e-08, global = -3.07323e-10, cumulative = -0.00154463
ExecutionTime = 0.4 s  ClockTime = 1 s

Time = 0.003

Courant Number mean: 0.151212 max: 0.220968
smoothSolver:  Solving for Ux, Initial residual = 0.224254, Final residual = 1.08919e-06, No Iterations 3
smoothSolver:  Solving for Uy, Initial residual = 0.474819, Final residual = 3.83796e-06, No Iterations 3
DICPCG:  Solving for p, Initial residual = 0.174898, Final residual = 0.00819782, No Iterations 22
time step continuity errors : sum local = 5.25203e-05, global = -7.38114e-06, cumulative = -0.00155201
DICPCG:  Solving for p, Initial residual = 0.0201779, Final residual = 9.2094e-07, No Iterations 219
time step continuity errors : sum local = 5.22494e-09, global = -7.58115e-12, cumulative = -0.00155201
ExecutionTime = 0.47 s  ClockTime = 1 s

Time = 0.004

Courant Number mean: 0.155842 max: 0.222774
smoothSolver:  Solving for Ux, Initial residual = 0.179715, Final residual = 9.08917e-07, No Iterations 3
smoothSolver:  Solving for Uy, Initial residual = 0.457009, Final residual = 4.19883e-06, No Iterations 3
DICPCG:  Solving for p, Initial residual = 0.117032, Final residual = 0.00561234, No Iterations 24
time step continuity errors : sum local = 3.62709e-05, global = -5.14646e-06, cumulative = -0.00155715
DICPCG:  Solving for p, Initial residual = 0.0118854, Final residual = 8.86693e-07, No Iterations 211
time step continuity errors : sum local = 5.18995e-09, global = -3.74577e-11, cumulative = -0.00155715
ExecutionTime = 0.54 s  ClockTime = 1 s

Time = 0.005

Courant Number mean: 0.160464 max: 0.228499
smoothSolver:  Solving for Ux, Initial residual = 0.145463, Final residual = 7.55797e-07, No Iterations 3
smoothSolver:  Solving for Uy, Initial residual = 0.421441, Final residual = 4.27366e-06, No Iterations 3
DICPCG:  Solving for p, Initial residual = 0.111608, Final residual = 0.00537748, No Iterations 27
time step continuity errors : sum local = 3.26499e-05, global = -4.87685e-06, cumulative = -0.00156203
DICPCG:  Solving for p, Initial residual = 0.0109139, Final residual = 9.14885e-07, No Iterations 210
time step continuity errors : sum local = 5.06933e-09, global = -4.52092e-12, cumulative = -0.00156203
ExecutionTime = 0.61 s  ClockTime = 1 s

Time = 0.006

Courant Number mean: 0.165082 max: 0.235319
smoothSolver:  Solving for Ux, Initial residual = 0.120951, Final residual = 6.60096e-07, No Iterations 3
smoothSolver:  Solving for Uy, Initial residual = 0.396948, Final residual = 4.41303e-06, No Iterations 3
DICPCG:  Solving for p, Initial residual = 0.112719, Final residual = 0.00555404, No Iterations 143
time step continuity errors : sum local = 3.29944e-05, global = -1.5912e-06, cumulative = -0.00156362
DICPCG:  Solving for p, Initial residual = 0.00843405, Final residual = 9.44598e-07, No Iterations 207
time step continuity errors : sum local = 8.94335e-09, global = -3.29619e-11, cumulative = -0.00156362
ExecutionTime = 0.71 s  ClockTime = 1 s

Time = 0.007

Courant Number mean: 0.171989 max: 0.24541
smoothSolver:  Solving for Ux, Initial residual = 0.094586, Final residual = 5.96682e-07, No Iterations 3
smoothSolver:  Solving for Uy, Initial residual = 0.46341, Final residual = 5.88824e-06, No Iterations 3
DICPCG:  Solving for p, Initial residual = 0.0775724, Final residual = 0.00385103, No Iterations 81
time step continuity errors : sum local = 3.26565e-05, global = 6.09588e-06, cumulative = -0.00155753
DICPCG:  Solving for p, Initial residual = 0.00898954, Final residual = 9.09775e-07, No Iterations 212
time step continuity errors : sum local = 7.00422e-09, global = 6.28972e-11, cumulative = -0.00155753
ExecutionTime = 0.8 s  ClockTime = 2 s

Time = 0.008

Courant Number mean: 0.176604 max: 0.252329
smoothSolver:  Solving for Ux, Initial residual = 0.0928133, Final residual = 5.89855e-07, No Iterations 3
smoothSolver:  Solving for Uy, Initial residual = 0.334849, Final residual = 4.52209e-06, No Iterations 3
DICPCG:  Solving for p, Initial residual = 0.124737, Final residual = 0.00617195, No Iterations 129
time step continuity errors : sum local = 3.14315e-05, global = -1.80353e-06, cumulative = -0.00155933
DICPCG:  Solving for p, Initial residual = 0.00853781, Final residual = 8.58001e-07, No Iterations 205
time step continuity errors : sum local = 8.30291e-09, global = 2.14569e-11, cumulative = -0.00155933
ExecutionTime = 0.9 s  ClockTime = 2 s

Time = 0.009

Courant Number mean: 0.183507 max: 0.262433
smoothSolver:  Solving for Ux, Initial residual = 0.0692754, Final residual = 5.27697e-07, No Iterations 3
smoothSolver:  Solving for Uy, Initial residual = 0.422761, Final residual = 6.43114e-06, No Iterations 3
DICPCG:  Solving for p, Initial residual = 0.0743074, Final residual = 0.00367192, No Iterations 31
time step continuity errors : sum local = 3.04856e-05, global = -4.54462e-06, cumulative = -0.00156387
DICPCG:  Solving for p, Initial residual = 0.0071407, Final residual = 9.9661e-07, No Iterations 204
time step continuity errors : sum local = 7.81831e-09, global = -2.63524e-11, cumulative = -0.00156387
ExecutionTime = 0.98 s  ClockTime = 2 s

Time = 0.01

Courant Number mean: 0.19041 max: 0.272574
smoothSolver:  Solving for Ux, Initial residual = 0.0559923, Final residual = 4.44137e-07, No Iterations 3
smoothSolver:  Solving for Uy, Initial residual = 0.408226, Final residual = 6.87893e-06, No Iterations 3
DICPCG:  Solving for p, Initial residual = 0.072096, Final residual = 0.00343801, No Iterations 29
time step continuity errors : sum local = 2.89256e-05, global = -4.2987e-06, cumulative = -0.00156817
DICPCG:  Solving for p, Initial residual = 0.00677175, Final residual = 8.92694e-07, No Iterations 203
time step continuity errors : sum local = 7.10057e-09, global = 7.35711e-12, cumulative = -0.00156817
ExecutionTime = 1.13 s  ClockTime = 2 s

Time = 0.011

Courant Number mean: 0.197313 max: 0.282735
smoothSolver:  Solving for Ux, Initial residual = 0.0495288, Final residual = 4.45647e-07, No Iterations 3
smoothSolver:  Solving for Uy, Initial residual = 0.387787, Final residual = 7.22426e-06, No Iterations 3
DICPCG:  Solving for p, Initial residual = 0.0723507, Final residual = 0.00356123, No Iterations 27
time step continuity errors : sum local = 2.96e-05, global = -4.75829e-06, cumulative = -0.00157293
DICPCG:  Solving for p, Initial residual = 0.00694385, Final residual = 9.57822e-07, No Iterations 208
time step continuity errors : sum local = 7.51968e-09, global = 2.13806e-11, cumulative = -0.00157293
ExecutionTime = 1.19 s  ClockTime = 2 s

Time = 0.012

Courant Number mean: 0.204215 max: 0.29291
smoothSolver:  Solving for Ux, Initial residual = 0.0438678, Final residual = 4.50855e-07, No Iterations 3
smoothSolver:  Solving for Uy, Initial residual = 0.368884, Final residual = 7.57768e-06, No Iterations 3
DICPCG:  Solving for p, Initial residual = 0.0721476, Final residual = 0.00355467, No Iterations 26
time step continuity errors : sum local = 2.94318e-05, global = -4.86021e-06, cumulative = -0.00157779
DICPCG:  Solving for p, Initial residual = 0.00683647, Final residual = 9.37874e-07, No Iterations 208
time step continuity errors : sum local = 7.33202e-09, global = 1.37523e-11, cumulative = -0.00157779
ExecutionTime = 1.26 s  ClockTime = 2 s

Time = 0.013

Courant Number mean: 0.211117 max: 0.303097
smoothSolver:  Solving for Ux, Initial residual = 0.0395738, Final residual = 4.60265e-07, No Iterations 3
smoothSolver:  Solving for Uy, Initial residual = 0.350339, Final residual = 7.91764e-06, No Iterations 3
DICPCG:  Solving for p, Initial residual = 0.0698056, Final residual = 0.00344363, No Iterations 25
time step continuity errors : sum local = 2.84039e-05, global = -4.85145e-06, cumulative = -0.00158264
DICPCG:  Solving for p, Initial residual = 0.00682844, Final residual = 9.33743e-07, No Iterations 207
time step continuity errors : sum local = 7.28437e-09, global = -2.0424e-11, cumulative = -0.00158264
ExecutionTime = 1.32 s  ClockTime = 2 s

Time = 0.014

Courant Number mean: 0.218019 max: 0.313292
smoothSolver:  Solving for Ux, Initial residual = 0.0359836, Final residual = 4.69111e-07, No Iterations 3
smoothSolver:  Solving for Uy, Initial residual = 0.333028, Final residual = 8.26266e-06, No Iterations 3
DICPCG:  Solving for p, Initial residual = 0.072023, Final residual = 0.00346041, No Iterations 25
time step continuity errors : sum local = 2.83217e-05, global = -5.02718e-06, cumulative = -0.00158767
DICPCG:  Solving for p, Initial residual = 0.00696446, Final residual = 9.63565e-07, No Iterations 207
time step continuity errors : sum local = 7.4457e-09, global = -2.1645e-11, cumulative = -0.00158767
ExecutionTime = 1.39 s  ClockTime = 3 s

Time = 0.015

Courant Number mean: 0.224921 max: 0.323493
smoothSolver:  Solving for Ux, Initial residual = 0.0331543, Final residual = 4.87394e-07, No Iterations 3
smoothSolver:  Solving for Uy, Initial residual = 0.317239, Final residual = 8.62364e-06, No Iterations 3
DICPCG:  Solving for p, Initial residual = 0.0696166, Final residual = 0.00328635, No Iterations 25
time step continuity errors : sum local = 2.68552e-05, global = -4.77261e-06, cumulative = -0.00159244
DICPCG:  Solving for p, Initial residual = 0.00666936, Final residual = 9.3908e-07, No Iterations 207
time step continuity errors : sum local = 7.25928e-09, global = -2.31288e-11, cumulative = -0.00159244
ExecutionTime = 1.46 s  ClockTime = 3 s

Time = 0.016

Courant Number mean: 0.231823 max: 0.333696
smoothSolver:  Solving for Ux, Initial residual = 0.0308213, Final residual = 5.09576e-07, No Iterations 3
smoothSolver:  Solving for Uy, Initial residual = 0.3025, Final residual = 8.99133e-06, No Iterations 3
DICPCG:  Solving for p, Initial residual = 0.0702969, Final residual = 0.00256931, No Iterations 158
time step continuity errors : sum local = 2.08914e-05, global = -4.88923e-09, cumulative = -0.00159245
DICPCG:  Solving for p, Initial residual = 0.00559205, Final residual = 9.14245e-07, No Iterations 213
time step continuity errors : sum local = 1.0919e-08, global = -1.5113e-11, cumulative = -0.00159245
ExecutionTime = 1.55 s  ClockTime = 3 s

Time = 0.017

Courant Number mean: 0.241017 max: 0.347332
smoothSolver:  Solving for Ux, Initial residual = 0.0386947, Final residual = 8.84164e-07, No Iterations 3
smoothSolver:  Solving for Uy, Initial residual = 0.351561, Final residual = 4.06517e-07, No Iterations 4
DICPCG:  Solving for p, Initial residual = 0.053868, Final residual = 0.00258304, No Iterations 83
time step continuity errors : sum local = 2.72267e-05, global = 6.04293e-06, cumulative = -0.0015864
DICPCG:  Solving for p, Initial residual = 0.00638135, Final residual = 9.45505e-07, No Iterations 201
time step continuity errors : sum local = 9.29192e-09, global = 1.80128e-11, cumulative = -0.0015864
ExecutionTime = 1.62 s  ClockTime = 3 s

Time = 0.018

Courant Number mean: 0.24792 max: 0.358182
smoothSolver:  Solving for Ux, Initial residual = 0.0308719, Final residual = 6.65984e-07, No Iterations 3
smoothSolver:  Solving for Uy, Initial residual = 0.26103, Final residual = 9.51297e-06, No Iterations 3
DICPCG:  Solving for p, Initial residual = 0.0785768, Final residual = 0.00390349, No Iterations 130
time step continuity errors : sum local = 2.84388e-05, global = -1.95843e-06, cumulative = -0.00158836
DICPCG:  Solving for p, Initial residual = 0.00667253, Final residual = 8.41331e-07, No Iterations 204
time step continuity errors : sum local = 1.00984e-08, global = -8.83099e-13, cumulative = -0.00158836
ExecutionTime = 1.7 s  ClockTime = 3 s

Time = 0.019

Courant Number mean: 0.257114 max: 0.37206
smoothSolver:  Solving for Ux, Initial residual = 0.0299578, Final residual = 7.74985e-07, No Iterations 3
smoothSolver:  Solving for Uy, Initial residual = 0.322688, Final residual = 4.82545e-07, No Iterations 4
DICPCG:  Solving for p, Initial residual = 0.051703, Final residual = 0.00251394, No Iterations 30
time step continuity errors : sum local = 2.64014e-05, global = -4.0404e-06, cumulative = -0.0015924
DICPCG:  Solving for p, Initial residual = 0.00492729, Final residual = 9.12197e-07, No Iterations 199
time step continuity errors : sum local = 9.21314e-09, global = -3.78284e-11, cumulative = -0.0015924
ExecutionTime = 1.77 s  ClockTime = 3 s

Time = 0.02

Courant Number mean: 0.266308 max: 0.385808
smoothSolver:  Solving for Ux, Initial residual = 0.0241574, Final residual = 6.67123e-07, No Iterations 3
smoothSolver:  Solving for Uy, Initial residual = 0.313293, Final residual = 5.39352e-07, No Iterations 4
DICPCG:  Solving for p, Initial residual = 0.0522153, Final residual = 0.00258389, No Iterations 26
time step continuity errors : sum local = 2.73951e-05, global = -4.25182e-06, cumulative = -0.00159665
DICPCG:  Solving for p, Initial residual = 0.00488267, Final residual = 9.616e-07, No Iterations 205
time step continuity errors : sum local = 9.79087e-09, global = -2.88395e-12, cumulative = -0.00159665
ExecutionTime = 1.9 s  ClockTime = 3 s

Time = 0.021

Courant Number mean: 0.275503 max: 0.399635
smoothSolver:  Solving for Ux, Initial residual = 0.0224087, Final residual = 7.30668e-07, No Iterations 3
smoothSolver:  Solving for Uy, Initial residual = 0.299825, Final residual = 5.92235e-07, No Iterations 4
DICPCG:  Solving for p, Initial residual = 0.0512172, Final residual = 0.00239888, No Iterations 143
time step continuity errors : sum local = 2.52186e-05, global = 1.12829e-06, cumulative = -0.00159553
DICPCG:  Solving for p, Initial residual = 0.00943473, Final residual = 9.87962e-07, No Iterations 209
time step continuity errors : sum local = 7.24243e-09, global = 7.6198e-11, cumulative = -0.00159553
ExecutionTime = 1.99 s  ClockTime = 3 s

Time = 0.022

Courant Number mean: 0.282407 max: 0.410184
smoothSolver:  Solving for Ux, Initial residual = 0.0297862, Final residual = 9.77359e-07, No Iterations 3
smoothSolver:  Solving for Uy, Initial residual = 0.228201, Final residual = 5.04149e-07, No Iterations 4
DICPCG:  Solving for p, Initial residual = 0.0695682, Final residual = 0.0034196, No Iterations 147
time step continuity errors : sum local = 2.64487e-05, global = -7.12238e-07, cumulative = -0.00159624
DICPCG:  Solving for p, Initial residual = 0.00616448, Final residual = 9.28298e-07, No Iterations 200
time step continuity errors : sum local = 1.07556e-08, global = -2.85044e-12, cumulative = -0.00159624
ExecutionTime = 2.08 s  ClockTime = 4 s

Time = 0.023

Courant Number mean: 0.291602 max: 0.423872
smoothSolver:  Solving for Ux, Initial residual = 0.0243841, Final residual = 1.0356e-06, No Iterations 3
smoothSolver:  Solving for Uy, Initial residual = 0.27644, Final residual = 6.90684e-07, No Iterations 4
DICPCG:  Solving for p, Initial residual = 0.0512144, Final residual = 0.00255635, No Iterations 33
time step continuity errors : sum local = 2.64158e-05, global = -3.45152e-06, cumulative = -0.00159969
DICPCG:  Solving for p, Initial residual = 0.00494905, Final residual = 9.76208e-07, No Iterations 204
time step continuity errors : sum local = 9.71718e-09, global = -6.69888e-11, cumulative = -0.00159969
ExecutionTime = 2.14 s  ClockTime = 4 s

Time = 0.024

Courant Number mean: 0.300798 max: 0.437529
smoothSolver:  Solving for Ux, Initial residual = 0.0211583, Final residual = 9.51028e-07, No Iterations 3
smoothSolver:  Solving for Uy, Initial residual = 0.26852, Final residual = 7.62175e-07, No Iterations 4
DICPCG:  Solving for p, Initial residual = 0.0491737, Final residual = 0.00237042, No Iterations 148
time step continuity errors : sum local = 2.47712e-05, global = 3.82925e-07, cumulative = -0.00159931
DICPCG:  Solving for p, Initial residual = 0.00482766, Final residual = 9.08955e-07, No Iterations 205
time step continuity errors : sum local = 1.27467e-08, global = 6.6561e-11, cumulative = -0.00159931
ExecutionTime = 2.24 s  ClockTime = 4 s

Time = 0.025

Courant Number mean: 0.312285 max: 0.45448
smoothSolver:  Solving for Ux, Initial residual = 0.0271455, Final residual = 1.25444e-06, No Iterations 3
smoothSolver:  Solving for Uy, Initial residual = 0.303966, Final residual = 1.00419e-06, No Iterations 4
DICPCG:  Solving for p, Initial residual = 0.0402622, Final residual = 0.00195988, No Iterations 85
time step continuity errors : sum local = 2.49184e-05, global = 6.28285e-06, cumulative = -0.00159302
DICPCG:  Solving for p, Initial residual = 0.00492067, Final residual = 8.64327e-07, No Iterations 203
time step continuity errors : sum local = 1.03439e-08, global = -1.21201e-10, cumulative = -0.00159302
ExecutionTime = 2.32 s  ClockTime = 4 s

Time = 0.026

Courant Number mean: 0.321484 max: 0.468343
smoothSolver:  Solving for Ux, Initial residual = 0.0248404, Final residual = 1.26253e-06, No Iterations 3
smoothSolver:  Solving for Uy, Initial residual = 0.236301, Final residual = 8.87478e-07, No Iterations 4
DICPCG:  Solving for p, Initial residual = 0.0538862, Final residual = 0.00221904, No Iterations 158
time step continuity errors : sum local = 2.09261e-05, global = -3.62399e-08, cumulative = -0.00159306
DICPCG:  Solving for p, Initial residual = 0.00419532, Final residual = 9.42776e-07, No Iterations 210
time step continuity errors : sum local = 1.02614e-08, global = 2.15426e-11, cumulative = -0.00159306
ExecutionTime = 2.4 s  ClockTime = 4 s

Time = 0.027

Courant Number mean: 0.330681 max: 0.481956
smoothSolver:  Solving for Ux, Initial residual = 0.0281454, Final residual = 1.90672e-06, No Iterations 3
smoothSolver:  Solving for Uy, Initial residual = 0.237714, Final residual = 1.00486e-06, No Iterations 4
DICPCG:  Solving for p, Initial residual = 0.0490422, Final residual = 0.00238456, No Iterations 34
time step continuity errors : sum local = 2.40617e-05, global = -3.58465e-06, cumulative = -0.00159665
DICPCG:  Solving for p, Initial residual = 0.00464476, Final residual = 9.29681e-07, No Iterations 205
time step continuity errors : sum local = 9.05873e-09, global = 2.74282e-11, cumulative = -0.00159665
ExecutionTime = 2.46 s  ClockTime = 4 s

Time = 0.028

Courant Number mean: 0.339879 max: 0.495464
smoothSolver:  Solving for Ux, Initial residual = 0.02105, Final residual = 1.38249e-06, No Iterations 3
smoothSolver:  Solving for Uy, Initial residual = 0.232025, Final residual = 1.10083e-06, No Iterations 4
DICPCG:  Solving for p, Initial residual = 0.0487062, Final residual = 0.00189174, No Iterations 158
time step continuity errors : sum local = 1.94546e-05, global = 4.28298e-08, cumulative = -0.0015966
DICPCG:  Solving for p, Initial residual = 0.00454038, Final residual = 9.92652e-07, No Iterations 212
time step continuity errors : sum local = 1.38229e-08, global = -3.91519e-11, cumulative = -0.0015966
ExecutionTime = 2.56 s  ClockTime = 4 s

Time = 0.029

Courant Number mean: 0.351369 max: 0.512322
smoothSolver:  Solving for Ux, Initial residual = 0.0285749, Final residual = 2.34614e-06, No Iterations 3
smoothSolver:  Solving for Uy, Initial residual = 0.264608, Final residual = 1.43925e-06, No Iterations 4
DICPCG:  Solving for p, Initial residual = 0.0387518, Final residual = 0.00185918, No Iterations 142
time step continuity errors : sum local = 2.31253e-05, global = 3.93412e-07, cumulative = -0.00159621
DICPCG:  Solving for p, Initial residual = 0.00699484, Final residual = 9.65467e-07, No Iterations 205
time step continuity errors : sum local = 9.03817e-09, global = 6.15248e-11, cumulative = -0.00159621
ExecutionTime = 2.65 s  ClockTime = 4 s

Time = 0.03

Courant Number mean: 0.360568 max: 0.525911
smoothSolver:  Solving for Ux, Initial residual = 0.0241517, Final residual = 1.85844e-06, No Iterations 3
smoothSolver:  Solving for Uy, Initial residual = 0.213575, Final residual = 1.30587e-06, No Iterations 4
DICPCG:  Solving for p, Initial residual = 0.0494856, Final residual = 0.00241615, No Iterations 34
time step continuity errors : sum local = 2.3984e-05, global = -3.5789e-06, cumulative = -0.00159979
DICPCG:  Solving for p, Initial residual = 0.00476905, Final residual = 9.51182e-07, No Iterations 203
time step continuity errors : sum local = 9.12619e-09, global = -5.50628e-11, cumulative = -0.00159979
ExecutionTime = 2.8 s  ClockTime = 5 s

Time = 0.031

Courant Number mean: 0.369768 max: 0.539356
smoothSolver:  Solving for Ux, Initial residual = 0.0208538, Final residual = 1.74503e-06, No Iterations 3
smoothSolver:  Solving for Uy, Initial residual = 0.209692, Final residual = 1.42726e-06, No Iterations 4
DICPCG:  Solving for p, Initial residual = 0.0467794, Final residual = 0.0022712, No Iterations 147
time step continuity errors : sum local = 2.31197e-05, global = 5.19087e-07, cumulative = -0.00159927
DICPCG:  Solving for p, Initial residual = 0.00481852, Final residual = 9.08023e-07, No Iterations 208
time step continuity errors : sum local = 1.24288e-08, global = -5.65343e-11, cumulative = -0.00159927
ExecutionTime = 2.9 s  ClockTime = 5 s

Time = 0.032

Courant Number mean: 0.381259 max: 0.556137
smoothSolver:  Solving for Ux, Initial residual = 0.0224266, Final residual = 2.29285e-06, No Iterations 3
smoothSolver:  Solving for Uy, Initial residual = 0.240759, Final residual = 1.86096e-06, No Iterations 4
DICPCG:  Solving for p, Initial residual = 0.0373115, Final residual = 0.00173753, No Iterations 143
time step continuity errors : sum local = 2.13688e-05, global = 9.40838e-07, cumulative = -0.00159833
DICPCG:  Solving for p, Initial residual = 0.00688202, Final residual = 9.16198e-07, No Iterations 209
time step continuity errors : sum local = 8.42809e-09, global = 1.48159e-11, cumulative = -0.00159833
ExecutionTime = 3.01 s  ClockTime = 5 s

Time = 0.033

Courant Number mean: 0.39046 max: 0.569695
smoothSolver:  Solving for Ux, Initial residual = 0.0237925, Final residual = 2.40173e-06, No Iterations 3
smoothSolver:  Solving for Uy, Initial residual = 0.193203, Final residual = 1.66735e-06, No Iterations 4
DICPCG:  Solving for p, Initial residual = 0.0482752, Final residual = 0.00189713, No Iterations 158
time step continuity errors : sum local = 1.85938e-05, global = 2.59051e-08, cumulative = -0.0015983
DICPCG:  Solving for p, Initial residual = 0.00459199, Final residual = 9.69016e-07, No Iterations 209
time step continuity errors : sum local = 1.3377e-08, global = -1.51591e-11, cumulative = -0.0015983
ExecutionTime = 3.11 s  ClockTime = 5 s

Time = 0.034

Courant Number mean: 0.401952 max: 0.586459
smoothSolver:  Solving for Ux, Initial residual = 0.02624, Final residual = 3.54633e-06, No Iterations 3
smoothSolver:  Solving for Uy, Initial residual = 0.225865, Final residual = 2.19529e-06, No Iterations 4
DICPCG:  Solving for p, Initial residual = 0.0368223, Final residual = 0.00176892, No Iterations 34
time step continuity errors : sum local = 2.15073e-05, global = -3.16984e-06, cumulative = -0.00160147
DICPCG:  Solving for p, Initial residual = 0.00350434, Final residual = 8.25876e-07, No Iterations 204
time step continuity errors : sum local = 9.78527e-09, global = -2.99109e-11, cumulative = -0.00160147
ExecutionTime = 3.19 s  ClockTime = 5 s

Time = 0.035

Courant Number mean: 0.413446 max: 0.603167
smoothSolver:  Solving for Ux, Initial residual = 0.0184514, Final residual = 2.40083e-06, No Iterations 3
smoothSolver:  Solving for Uy, Initial residual = 0.22091, Final residual = 2.42566e-06, No Iterations 4
DICPCG:  Solving for p, Initial residual = 0.0364815, Final residual = 0.00152823, No Iterations 158
time step continuity errors : sum local = 1.88066e-05, global = 5.93618e-08, cumulative = -0.00160141
DICPCG:  Solving for p, Initial residual = 0.00705313, Final residual = 8.25049e-07, No Iterations 217
time step continuity errors : sum local = 7.30699e-09, global = 2.05804e-11, cumulative = -0.00160141
ExecutionTime = 3.3 s  ClockTime = 5 s

Time = 0.036

Courant Number mean: 0.422649 max: 0.616681
smoothSolver:  Solving for Ux, Initial residual = 0.028225, Final residual = 3.92339e-06, No Iterations 3
smoothSolver:  Solving for Uy, Initial residual = 0.176068, Final residual = 2.14599e-06, No Iterations 4
DICPCG:  Solving for p, Initial residual = 0.0462969, Final residual = 0.00177724, No Iterations 158
time step continuity errors : sum local = 1.72358e-05, global = 1.12705e-08, cumulative = -0.0016014
DICPCG:  Solving for p, Initial residual = 0.00456099, Final residual = 9.44203e-07, No Iterations 213
time step continuity errors : sum local = 1.28977e-08, global = -9.99845e-12, cumulative = -0.0016014
ExecutionTime = 3.39 s  ClockTime = 5 s

Time = 0.037

Courant Number mean: 0.434143 max: 0.633407
smoothSolver:  Solving for Ux, Initial residual = 0.0243569, Final residual = 4.28221e-06, No Iterations 3
smoothSolver:  Solving for Uy, Initial residual = 0.206451, Final residual = 2.81049e-06, No Iterations 4
DICPCG:  Solving for p, Initial residual = 0.0366689, Final residual = 0.00176537, No Iterations 34
time step continuity errors : sum local = 2.11501e-05, global = -3.1032e-06, cumulative = -0.0016045
DICPCG:  Solving for p, Initial residual = 0.00351441, Final residual = 8.85629e-07, No Iterations 204
time step continuity errors : sum local = 1.03417e-08, global = -3.2902e-11, cumulative = -0.0016045
ExecutionTime = 3.47 s  ClockTime = 5 s

Time = 0.038

Courant Number mean: 0.445637 max: 0.650073
smoothSolver:  Solving for Ux, Initial residual = 0.0175158, Final residual = 3.01646e-06, No Iterations 3
smoothSolver:  Solving for Uy, Initial residual = 0.202276, Final residual = 3.08585e-06, No Iterations 4
DICPCG:  Solving for p, Initial residual = 0.0350273, Final residual = 0.00148435, No Iterations 158
time step continuity errors : sum local = 1.80337e-05, global = 3.76839e-08, cumulative = -0.00160447
DICPCG:  Solving for p, Initial residual = 0.00708096, Final residual = 8.38496e-07, No Iterations 217
time step continuity errors : sum local = 7.26421e-09, global = 1.82676e-11, cumulative = -0.00160447
ExecutionTime = 3.56 s  ClockTime = 6 s

Time = 0.039

Courant Number mean: 0.454842 max: 0.663541
smoothSolver:  Solving for Ux, Initial residual = 0.0271764, Final residual = 4.84197e-06, No Iterations 3
smoothSolver:  Solving for Uy, Initial residual = 0.160838, Final residual = 2.7081e-06, No Iterations 4
DICPCG:  Solving for p, Initial residual = 0.0444686, Final residual = 0.0020065, No Iterations 148
time step continuity errors : sum local = 1.92356e-05, global = 5.72947e-07, cumulative = -0.00160389
DICPCG:  Solving for p, Initial residual = 0.00462272, Final residual = 9.77111e-07, No Iterations 204
time step continuity errors : sum local = 1.31547e-08, global = -9.48453e-11, cumulative = -0.00160389
ExecutionTime = 3.64 s  ClockTime = 6 s

Time = 0.04

Courant Number mean: 0.466338 max: 0.680185
smoothSolver:  Solving for Ux, Initial residual = 0.0194824, Final residual = 4.16809e-06, No Iterations 3
smoothSolver:  Solving for Uy, Initial residual = 0.18984, Final residual = 3.54364e-06, No Iterations 4
DICPCG:  Solving for p, Initial residual = 0.0352234, Final residual = 0.0017448, No Iterations 35
time step continuity errors : sum local = 2.06751e-05, global = -2.63968e-06, cumulative = -0.00160653
DICPCG:  Solving for p, Initial residual = 0.00349088, Final residual = 9.86826e-07, No Iterations 202
time step continuity errors : sum local = 1.14157e-08, global = -3.5148e-12, cumulative = -0.00160653
ExecutionTime = 3.79 s  ClockTime = 6 s

Time = 0.041

Courant Number mean: 0.477834 max: 0.696795
smoothSolver:  Solving for Ux, Initial residual = 0.0161962, Final residual = 3.59805e-06, No Iterations 3
smoothSolver:  Solving for Uy, Initial residual = 0.185845, Final residual = 3.85817e-06, No Iterations 4
DICPCG:  Solving for p, Initial residual = 0.033169, Final residual = 0.00162584, No Iterations 27
time step continuity errors : sum local = 1.94793e-05, global = -2.3762e-06, cumulative = -0.00160891
DICPCG:  Solving for p, Initial residual = 0.00318554, Final residual = 9.98578e-07, No Iterations 201
time step continuity errors : sum local = 1.16703e-08, global = -8.32183e-12, cumulative = -0.00160891
ExecutionTime = 3.85 s  ClockTime = 6 s

Time = 0.042

Courant Number mean: 0.489331 max: 0.713434
smoothSolver:  Solving for Ux, Initial residual = 0.0156287, Final residual = 3.78207e-06, No Iterations 3
smoothSolver:  Solving for Uy, Initial residual = 0.179886, Final residual = 4.1475e-06, No Iterations 4
DICPCG:  Solving for p, Initial residual = 0.0345537, Final residual = 0.00163839, No Iterations 25
time step continuity errors : sum local = 1.93502e-05, global = -3.30273e-06, cumulative = -0.00161221
DICPCG:  Solving for p, Initial residual = 0.00335962, Final residual = 9.79949e-07, No Iterations 202
time step continuity errors : sum local = 1.12734e-08, global = -2.00559e-12, cumulative = -0.00161221
ExecutionTime = 3.91 s  ClockTime = 6 s

Time = 0.043

Courant Number mean: 0.500828 max: 0.730077
smoothSolver:  Solving for Ux, Initial residual = 0.015688, Final residual = 4.1002e-06, No Iterations 3
smoothSolver:  Solving for Uy, Initial residual = 0.175653, Final residual = 4.48666e-06, No Iterations 4
DICPCG:  Solving for p, Initial residual = 0.0330684, Final residual = 0.00164197, No Iterations 23
time step continuity errors : sum local = 1.9439e-05, global = -3.0298e-06, cumulative = -0.00161524
DICPCG:  Solving for p, Initial residual = 0.00325229, Final residual = 9.33217e-07, No Iterations 203
time step continuity errors : sum local = 1.07706e-08, global = 2.96238e-11, cumulative = -0.00161524
ExecutionTime = 3.98 s  ClockTime = 6 s

Time = 0.044

Courant Number mean: 0.512326 max: 0.746715
smoothSolver:  Solving for Ux, Initial residual = 0.0156449, Final residual = 4.39545e-06, No Iterations 3
smoothSolver:  Solving for Uy, Initial residual = 0.170578, Final residual = 4.81879e-06, No Iterations 4
DICPCG:  Solving for p, Initial residual = 0.0331296, Final residual = 0.00165029, No Iterations 23
time step continuity errors : sum local = 1.93683e-05, global = -3.26723e-06, cumulative = -0.00161851
DICPCG:  Solving for p, Initial residual = 0.00329982, Final residual = 8.81559e-07, No Iterations 204
time step continuity errors : sum local = 1.00861e-08, global = -1.85636e-12, cumulative = -0.00161851
ExecutionTime = 4.05 s  ClockTime = 6 s

Time = 0.045

Courant Number mean: 0.523825 max: 0.763303
smoothSolver:  Solving for Ux, Initial residual = 0.015497, Final residual = 4.69765e-06, No Iterations 3
smoothSolver:  Solving for Uy, Initial residual = 0.166362, Final residual = 5.18658e-06, No Iterations 4
DICPCG:  Solving for p, Initial residual = 0.0317478, Final residual = 0.00154511, No Iterations 23
time step continuity errors : sum local = 1.81182e-05, global = -2.92676e-06, cumulative = -0.00162144
DICPCG:  Solving for p, Initial residual = 0.00313152, Final residual = 9.89437e-07, No Iterations 203
time step continuity errors : sum local = 1.13231e-08, global = 1.20321e-11, cumulative = -0.00162144
ExecutionTime = 4.11 s  ClockTime = 6 s

Time = 0.046

Courant Number mean: 0.535324 max: 0.779858
smoothSolver:  Solving for Ux, Initial residual = 0.0153168, Final residual = 5.00314e-06, No Iterations 3
smoothSolver:  Solving for Uy, Initial residual = 0.161842, Final residual = 5.5582e-06, No Iterations 4
DICPCG:  Solving for p, Initial residual = 0.0329841, Final residual = 0.00163902, No Iterations 23
time step continuity errors : sum local = 1.90667e-05, global = -3.20416e-06, cumulative = -0.00162464
DICPCG:  Solving for p, Initial residual = 0.00328705, Final residual = 8.86729e-07, No Iterations 204
time step continuity errors : sum local = 1.00578e-08, global = -4.63435e-12, cumulative = -0.00162464
ExecutionTime = 4.18 s  ClockTime = 7 s

Time = 0.047

Courant Number mean: 0.546824 max: 0.796372
smoothSolver:  Solving for Ux, Initial residual = 0.0151656, Final residual = 5.34955e-06, No Iterations 3
smoothSolver:  Solving for Uy, Initial residual = 0.157912, Final residual = 5.96052e-06, No Iterations 4
DICPCG:  Solving for p, Initial residual = 0.0316474, Final residual = 0.00151812, No Iterations 23
time step continuity errors : sum local = 1.7643e-05, global = -2.85953e-06, cumulative = -0.0016275
DICPCG:  Solving for p, Initial residual = 0.00311207, Final residual = 9.97118e-07, No Iterations 203
time step continuity errors : sum local = 1.13103e-08, global = 1.75565e-11, cumulative = -0.0016275
ExecutionTime = 4.26 s  ClockTime = 7 s

Time = 0.048

Courant Number mean: 0.558323 max: 0.812854
smoothSolver:  Solving for Ux, Initial residual = 0.0149218, Final residual = 5.67213e-06, No Iterations 3
smoothSolver:  Solving for Uy, Initial residual = 0.153741, Final residual = 6.36797e-06, No Iterations 4
DICPCG:  Solving for p, Initial residual = 0.0316239, Final residual = 0.00154728, No Iterations 23
time step continuity errors : sum local = 1.78638e-05, global = -2.9877e-06, cumulative = -0.00163049
DICPCG:  Solving for p, Initial residual = 0.00314038, Final residual = 9.89437e-07, No Iterations 203
time step continuity errors : sum local = 1.11507e-08, global = 1.84724e-11, cumulative = -0.00163049
ExecutionTime = 4.33 s  ClockTime = 7 s

Time = 0.049

Courant Number mean: 0.569824 max: 0.829299
smoothSolver:  Solving for Ux, Initial residual = 0.0146997, Final residual = 6.03016e-06, No Iterations 3
smoothSolver:  Solving for Uy, Initial residual = 0.150039, Final residual = 6.8053e-06, No Iterations 4
DICPCG:  Solving for p, Initial residual = 0.0303027, Final residual = 0.00144802, No Iterations 23
time step continuity errors : sum local = 1.66893e-05, global = -2.70324e-06, cumulative = -0.00163319
DICPCG:  Solving for p, Initial residual = 0.00298298, Final residual = 9.75992e-07, No Iterations 203
time step continuity errors : sum local = 1.09919e-08, global = 1.73787e-11, cumulative = -0.00163319
ExecutionTime = 4.39 s  ClockTime = 7 s

Time = 0.05

Courant Number mean: 0.581325 max: 0.845717
smoothSolver:  Solving for Ux, Initial residual = 0.0144277, Final residual = 6.38398e-06, No Iterations 3
smoothSolver:  Solving for Uy, Initial residual = 0.146211, Final residual = 7.25067e-06, No Iterations 4
DICPCG:  Solving for p, Initial residual = 0.0315071, Final residual = 0.00155069, No Iterations 23
time step continuity errors : sum local = 1.77456e-05, global = -2.95699e-06, cumulative = -0.00163615
DICPCG:  Solving for p, Initial residual = 0.00314699, Final residual = 8.84722e-07, No Iterations 204
time step continuity errors : sum local = 9.88451e-09, global = -5.96487e-12, cumulative = -0.00163615
ExecutionTime = 4.53 s  ClockTime = 7 s

Time = 0.051

Courant Number mean: 0.592826 max: 0.862106
smoothSolver:  Solving for Ux, Initial residual = 0.0142483, Final residual = 6.78587e-06, No Iterations 3
smoothSolver:  Solving for Uy, Initial residual = 0.142826, Final residual = 7.72798e-06, No Iterations 4
DICPCG:  Solving for p, Initial residual = 0.0302008, Final residual = 0.00142643, No Iterations 23
time step continuity errors : sum local = 1.63078e-05, global = -2.62577e-06, cumulative = -0.00163877
DICPCG:  Solving for p, Initial residual = 0.00296934, Final residual = 8.8829e-07, No Iterations 204
time step continuity errors : sum local = 9.92467e-09, global = -9.3003e-12, cumulative = -0.00163877
ExecutionTime = 4.6 s  ClockTime = 7 s

Time = 0.052

Courant Number mean: 0.604327 max: 0.87848
smoothSolver:  Solving for Ux, Initial residual = 0.0140062, Final residual = 7.15817e-06, No Iterations 3
smoothSolver:  Solving for Uy, Initial residual = 0.139243, Final residual = 8.20965e-06, No Iterations 4
DICPCG:  Solving for p, Initial residual = 0.0301724, Final residual = 0.00145809, No Iterations 23
time step continuity errors : sum local = 1.65662e-05, global = -2.76263e-06, cumulative = -0.00164154
DICPCG:  Solving for p, Initial residual = 0.00299927, Final residual = 8.74591e-07, No Iterations 204
time step continuity errors : sum local = 9.71209e-09, global = -9.02664e-12, cumulative = -0.00164154
ExecutionTime = 4.66 s  ClockTime = 7 s

Time = 0.053

Courant Number mean: 0.615829 max: 0.894832
smoothSolver:  Solving for Ux, Initial residual = 0.0138012, Final residual = 7.56353e-06, No Iterations 3
smoothSolver:  Solving for Uy, Initial residual = 0.136072, Final residual = 8.72545e-06, No Iterations 4
DICPCG:  Solving for p, Initial residual = 0.0288698, Final residual = 0.00135713, No Iterations 23
time step continuity errors : sum local = 1.53981e-05, global = -2.47562e-06, cumulative = -0.00164401
DICPCG:  Solving for p, Initial residual = 0.00284031, Final residual = 9.84239e-07, No Iterations 203
time step continuity errors : sum local = 1.09261e-08, global = 1.6817e-11, cumulative = -0.00164401
ExecutionTime = 4.72 s  ClockTime = 7 s

Time = 0.054

Courant Number mean: 0.627332 max: 0.911178
smoothSolver:  Solving for Ux, Initial residual = 0.0135489, Final residual = 7.95561e-06, No Iterations 3
smoothSolver:  Solving for Uy, Initial residual = 0.132762, Final residual = 9.24677e-06, No Iterations 4
DICPCG:  Solving for p, Initial residual = 0.0300585, Final residual = 0.00146227, No Iterations 23
time step continuity errors : sum local = 1.64766e-05, global = -2.74209e-06, cumulative = -0.00164675
DICPCG:  Solving for p, Initial residual = 0.00300569, Final residual = 8.78125e-07, No Iterations 204
time step continuity errors : sum local = 9.67261e-09, global = -7.33359e-12, cumulative = -0.00164675
ExecutionTime = 4.78 s  ClockTime = 7 s

Time = 0.055

Courant Number mean: 0.638834 max: 0.927511
smoothSolver:  Solving for Ux, Initial residual = 0.0133983, Final residual = 8.40428e-06, No Iterations 3
smoothSolver:  Solving for Uy, Initial residual = 0.129869, Final residual = 9.80611e-06, No Iterations 4
DICPCG:  Solving for p, Initial residual = 0.0287662, Final residual = 0.00143577, No Iterations 22
time step continuity errors : sum local = 1.61702e-05, global = -2.50793e-06, cumulative = -0.00164926
DICPCG:  Solving for p, Initial residual = 0.00293717, Final residual = 9.94093e-07, No Iterations 204
time step continuity errors : sum local = 1.09545e-08, global = -7.71581e-11, cumulative = -0.00164926
ExecutionTime = 4.86 s  ClockTime = 8 s

Time = 0.056

Courant Number mean: 0.650337 max: 0.943847
smoothSolver:  Solving for Ux, Initial residual = 0.0132065, Final residual = 8.83571e-06, No Iterations 3
smoothSolver:  Solving for Uy, Initial residual = 0.126746, Final residual = 1.02809e-06, No Iterations 5
DICPCG:  Solving for p, Initial residual = 0.027541, Final residual = 0.00136309, No Iterations 22
time step continuity errors : sum local = 1.52749e-05, global = -2.51776e-06, cumulative = -0.00165178
DICPCG:  Solving for p, Initial residual = 0.00279989, Final residual = 9.56946e-07, No Iterations 204
time step continuity errors : sum local = 1.05041e-08, global = 8.22268e-11, cumulative = -0.00165178
ExecutionTime = 4.92 s  ClockTime = 8 s

Time = 0.057

Courant Number mean: 0.66184 max: 0.960173
smoothSolver:  Solving for Ux, Initial residual = 0.0129677, Final residual = 9.24477e-06, No Iterations 3
smoothSolver:  Solving for Uy, Initial residual = 0.123969, Final residual = 1.10809e-06, No Iterations 5
DICPCG:  Solving for p, Initial residual = 0.0286573, Final residual = 0.00134999, No Iterations 23
time step continuity errors : sum local = 1.50683e-05, global = -2.46551e-06, cumulative = -0.00165425
DICPCG:  Solving for p, Initial residual = 0.00277349, Final residual = 9.88918e-07, No Iterations 203
time step continuity errors : sum local = 1.08025e-08, global = 3.94644e-12, cumulative = -0.00165425
ExecutionTime = 4.98 s  ClockTime = 8 s

Time = 0.058

Courant Number mean: 0.673344 max: 0.976499
smoothSolver:  Solving for Ux, Initial residual = 0.0127477, Final residual = 9.67312e-06, No Iterations 3
smoothSolver:  Solving for Uy, Initial residual = 0.121236, Final residual = 1.192e-06, No Iterations 5
DICPCG:  Solving for p, Initial residual = 0.0274066, Final residual = 0.00135975, No Iterations 22
time step continuity errors : sum local = 1.5144e-05, global = -2.37568e-06, cumulative = -0.00165662
DICPCG:  Solving for p, Initial residual = 0.00279855, Final residual = 9.30031e-07, No Iterations 204
time step continuity errors : sum local = 1.01472e-08, global = -7.2209e-11, cumulative = -0.00165662
ExecutionTime = 5.05 s  ClockTime = 8 s

Time = 0.059

Courant Number mean: 0.684848 max: 0.992825
smoothSolver:  Solving for Ux, Initial residual = 0.0125902, Final residual = 1.00804e-06, No Iterations 4
smoothSolver:  Solving for Uy, Initial residual = 0.118518, Final residual = 1.27981e-06, No Iterations 5
DICPCG:  Solving for p, Initial residual = 0.0285689, Final residual = 0.00134679, No Iterations 23
time step continuity errors : sum local = 1.4915e-05, global = -2.47504e-06, cumulative = -0.0016591
DICPCG:  Solving for p, Initial residual = 0.00277653, Final residual = 9.99954e-07, No Iterations 203
time step continuity errors : sum local = 1.08394e-08, global = 7.45164e-12, cumulative = -0.0016591
ExecutionTime = 5.13 s  ClockTime = 8 s

Time = 0.06

Courant Number mean: 0.696352 max: 1.00914
smoothSolver:  Solving for Ux, Initial residual = 0.012397, Final residual = 1.07295e-06, No Iterations 4
smoothSolver:  Solving for Uy, Initial residual = 0.116025, Final residual = 1.3736e-06, No Iterations 5
DICPCG:  Solving for p, Initial residual = 0.0266334, Final residual = 0.00115248, No Iterations 158
time step continuity errors : sum local = 1.27636e-05, global = 5.50136e-08, cumulative = -0.00165904
DICPCG:  Solving for p, Initial residual = 0.00703634, Final residual = 9.0616e-07, No Iterations 217
time step continuity errors : sum local = 6.88112e-09, global = 1.5683e-12, cumulative = -0.00165904
ExecutionTime = 5.33 s  ClockTime = 8 s

Time = 0.061

Courant Number mean: 0.705566 max: 1.02216
smoothSolver:  Solving for Ux, Initial residual = 0.0185225, Final residual = 1.61052e-06, No Iterations 4
smoothSolver:  Solving for Uy, Initial residual = 0.0917623, Final residual = 1.18383e-06, No Iterations 5
DICPCG:  Solving for p, Initial residual = 0.0350044, Final residual = 0.00138755, No Iterations 158
time step continuity errors : sum local = 1.23874e-05, global = -6.09861e-08, cumulative = -0.0016591
DICPCG:  Solving for p, Initial residual = 0.00433166, Final residual = 9.75862e-07, No Iterations 213
time step continuity errors : sum local = 1.24519e-08, global = -2.44112e-12, cumulative = -0.0016591
ExecutionTime = 5.43 s  ClockTime = 8 s

Time = 0.062

Courant Number mean: 0.717069 max: 1.0384
smoothSolver:  Solving for Ux, Initial residual = 0.0173529, Final residual = 1.81231e-06, No Iterations 4
smoothSolver:  Solving for Uy, Initial residual = 0.110659, Final residual = 1.54457e-06, No Iterations 5
DICPCG:  Solving for p, Initial residual = 0.0268298, Final residual = 0.00131332, No Iterations 31
time step continuity errors : sum local = 1.43162e-05, global = -2.14236e-06, cumulative = -0.00166124
DICPCG:  Solving for p, Initial residual = 0.00280979, Final residual = 9.16326e-07, No Iterations 205
time step continuity errors : sum local = 9.81257e-09, global = -5.22655e-11, cumulative = -0.00166124
ExecutionTime = 5.49 s  ClockTime = 8 s

Time = 0.063

Courant Number mean: 0.728573 max: 1.0546
smoothSolver:  Solving for Ux, Initial residual = 0.0122778, Final residual = 1.29194e-06, No Iterations 4
smoothSolver:  Solving for Uy, Initial residual = 0.109227, Final residual = 1.66157e-06, No Iterations 5
DICPCG:  Solving for p, Initial residual = 0.025879, Final residual = 0.00127881, No Iterations 24
time step continuity errors : sum local = 1.41016e-05, global = -1.40777e-06, cumulative = -0.00166265
DICPCG:  Solving for p, Initial residual = 0.00259755, Final residual = 9.44203e-07, No Iterations 201
time step continuity errors : sum local = 1.02187e-08, global = -4.68354e-11, cumulative = -0.00166265
ExecutionTime = 5.56 s  ClockTime = 9 s

Time = 0.064

Courant Number mean: 0.740078 max: 1.07095
smoothSolver:  Solving for Ux, Initial residual = 0.0116338, Final residual = 1.32121e-06, No Iterations 4
smoothSolver:  Solving for Uy, Initial residual = 0.106308, Final residual = 1.76216e-06, No Iterations 5
DICPCG:  Solving for p, Initial residual = 0.0260616, Final residual = 0.00123271, No Iterations 23
time step continuity errors : sum local = 1.33989e-05, global = -2.51817e-06, cumulative = -0.00166517
DICPCG:  Solving for p, Initial residual = 0.00263553, Final residual = 9.57768e-07, No Iterations 203
time step continuity errors : sum local = 1.0215e-08, global = 1.96716e-11, cumulative = -0.00166517
ExecutionTime = 5.63 s  ClockTime = 9 s

Time = 0.065

Courant Number mean: 0.751583 max: 1.08723
smoothSolver:  Solving for Ux, Initial residual = 0.0114845, Final residual = 1.38794e-06, No Iterations 4
smoothSolver:  Solving for Uy, Initial residual = 0.104723, Final residual = 1.88812e-06, No Iterations 5
DICPCG:  Solving for p, Initial residual = 0.0257759, Final residual = 0.00125171, No Iterations 22
time step continuity errors : sum local = 1.36932e-05, global = -1.85717e-06, cumulative = -0.00166703
DICPCG:  Solving for p, Initial residual = 0.00262935, Final residual = 9.08552e-07, No Iterations 204
time step continuity errors : sum local = 9.75218e-09, global = 8.3645e-11, cumulative = -0.00166703
ExecutionTime = 5.7 s  ClockTime = 9 s

Time = 0.066

Courant Number mean: 0.763088 max: 1.10352
smoothSolver:  Solving for Ux, Initial residual = 0.0113637, Final residual = 1.45215e-06, No Iterations 4
smoothSolver:  Solving for Uy, Initial residual = 0.102174, Final residual = 2.003e-06, No Iterations 5
DICPCG:  Solving for p, Initial residual = 0.0247118, Final residual = 0.0011705, No Iterations 22
time step continuity errors : sum local = 1.26853e-05, global = -2.27235e-06, cumulative = -0.0016693
DICPCG:  Solving for p, Initial residual = 0.0025014, Final residual = 9.69816e-07, No Iterations 204
time step continuity errors : sum local = 1.03234e-08, global = 4.19667e-11, cumulative = -0.0016693
ExecutionTime = 5.76 s  ClockTime = 9 s

Time = 0.067

Courant Number mean: 0.774594 max: 1.11977
smoothSolver:  Solving for Ux, Initial residual = 0.0112132, Final residual = 1.5272e-06, No Iterations 4
smoothSolver:  Solving for Uy, Initial residual = 0.100491, Final residual = 2.138e-06, No Iterations 5
DICPCG:  Solving for p, Initial residual = 0.0245161, Final residual = 0.0011636, No Iterations 22
time step continuity errors : sum local = 1.26445e-05, global = -1.86531e-06, cumulative = -0.00167117
DICPCG:  Solving for p, Initial residual = 0.00248611, Final residual = 9.60646e-07, No Iterations 204
time step continuity errors : sum local = 1.02545e-08, global = 3.81288e-11, cumulative = -0.00167117
ExecutionTime = 5.82 s  ClockTime = 9 s

Time = 0.068

Courant Number mean: 0.7861 max: 1.13602
smoothSolver:  Solving for Ux, Initial residual = 0.0110941, Final residual = 1.60538e-06, No Iterations 4
smoothSolver:  Solving for Uy, Initial residual = 0.0982516, Final residual = 2.26644e-06, No Iterations 5
DICPCG:  Solving for p, Initial residual = 0.0245561, Final residual = 0.0011547, No Iterations 22
time step continuity errors : sum local = 1.24559e-05, global = -2.17282e-06, cumulative = -0.00167334
DICPCG:  Solving for p, Initial residual = 0.00248783, Final residual = 9.66691e-07, No Iterations 204
time step continuity errors : sum local = 1.02442e-08, global = 3.71978e-11, cumulative = -0.00167334
ExecutionTime = 5.88 s  ClockTime = 9 s

Time = 0.069

Courant Number mean: 0.797605 max: 1.15306
smoothSolver:  Solving for Ux, Initial residual = 0.0109555, Final residual = 1.69257e-06, No Iterations 4
smoothSolver:  Solving for Uy, Initial residual = 0.0965588, Final residual = 2.41131e-06, No Iterations 5
DICPCG:  Solving for p, Initial residual = 0.0249612, Final residual = 0.00108128, No Iterations 158
time step continuity errors : sum local = 1.16744e-05, global = 1.35017e-08, cumulative = -0.00167332
DICPCG:  Solving for p, Initial residual = 0.00717059, Final residual = 9.03724e-07, No Iterations 217
time step continuity errors : sum local = 6.59586e-09, global = -2.67277e-12, cumulative = -0.00167332
ExecutionTime = 5.97 s  ClockTime = 9 s

Time = 0.07

Courant Number mean: 0.806822 max: 1.16867
smoothSolver:  Solving for Ux, Initial residual = 0.0160117, Final residual = 2.52106e-06, No Iterations 4
smoothSolver:  Solving for Uy, Initial residual = 0.0762718, Final residual = 2.05568e-06, No Iterations 5
DICPCG:  Solving for p, Initial residual = 0.0299571, Final residual = 0.00142144, No Iterations 157
time step continuity errors : sum local = 1.24949e-05, global = 4.91149e-08, cumulative = -0.00167328
DICPCG:  Solving for p, Initial residual = 0.00425834, Final residual = 9.88878e-07, No Iterations 216
time step continuity errors : sum local = 1.2442e-08, global = -7.12668e-11, cumulative = -0.00167328
ExecutionTime = 6.12 s  ClockTime = 9 s

Time = 0.071

Courant Number mean: 0.818326 max: 1.18736
smoothSolver:  Solving for Ux, Initial residual = 0.0148906, Final residual = 2.74845e-06, No Iterations 4
smoothSolver:  Solving for Uy, Initial residual = 0.0925689, Final residual = 2.66607e-06, No Iterations 5
DICPCG:  Solving for p, Initial residual = 0.0252346, Final residual = 0.00125431, No Iterations 30
time step continuity errors : sum local = 1.33602e-05, global = -1.97474e-06, cumulative = -0.00167525
DICPCG:  Solving for p, Initial residual = 0.00273127, Final residual = 8.78973e-07, No Iterations 207
time step continuity errors : sum local = 9.21026e-09, global = 4.68425e-11, cumulative = -0.00167525
ExecutionTime = 6.19 s  ClockTime = 10 s

Time = 0.072

Courant Number mean: 0.829832 max: 1.20622
smoothSolver:  Solving for Ux, Initial residual = 0.0109306, Final residual = 2.04049e-06, No Iterations 4
smoothSolver:  Solving for Uy, Initial residual = 0.091499, Final residual = 2.83784e-06, No Iterations 5
DICPCG:  Solving for p, Initial residual = 0.0219321, Final residual = 0.0010295, No Iterations 23
time step continuity errors : sum local = 1.11127e-05, global = -8.87732e-07, cumulative = -0.00167614
DICPCG:  Solving for p, Initial residual = 0.00216901, Final residual = 9.25752e-07, No Iterations 201
time step continuity errors : sum local = 9.83915e-09, global = -9.05836e-11, cumulative = -0.00167614
ExecutionTime = 6.25 s  ClockTime = 10 s

Time = 0.073

Courant Number mean: 0.841339 max: 1.22513
smoothSolver:  Solving for Ux, Initial residual = 0.0102899, Final residual = 2.07803e-06, No Iterations 4
smoothSolver:  Solving for Uy, Initial residual = 0.0891, Final residual = 2.97935e-06, No Iterations 5
DICPCG:  Solving for p, Initial residual = 0.023792, Final residual = 0.00102965, No Iterations 158
time step continuity errors : sum local = 1.09207e-05, global = -5.03935e-09, cumulative = -0.00167614
DICPCG:  Solving for p, Initial residual = 0.00694368, Final residual = 8.75526e-07, No Iterations 217
time step continuity errors : sum local = 6.37781e-09, global = 6.62784e-12, cumulative = -0.00167614
ExecutionTime = 6.34 s  ClockTime = 10 s

Time = 0.074

Courant Number mean: 0.850555 max: 1.24101
smoothSolver:  Solving for Ux, Initial residual = 0.0146982, Final residual = 2.99982e-06, No Iterations 4
smoothSolver:  Solving for Uy, Initial residual = 0.0707407, Final residual = 2.54156e-06, No Iterations 5
DICPCG:  Solving for p, Initial residual = 0.0296057, Final residual = 0.00148001, No Iterations 151
time step continuity errors : sum local = 1.29261e-05, global = 1.93014e-07, cumulative = -0.00167595
DICPCG:  Solving for p, Initial residual = 0.00426899, Final residual = 9.51394e-07, No Iterations 219
time step continuity errors : sum local = 1.19005e-08, global = -9.49252e-11, cumulative = -0.00167595
ExecutionTime = 6.42 s  ClockTime = 10 s

Time = 0.075

Courant Number mean: 0.86206 max: 1.25986
smoothSolver:  Solving for Ux, Initial residual = 0.02083, Final residual = 5.46027e-06, No Iterations 4
smoothSolver:  Solving for Uy, Initial residual = 0.0861194, Final residual = 3.29086e-06, No Iterations 5
DICPCG:  Solving for p, Initial residual = 0.0227737, Final residual = 0.00111604, No Iterations 29
time step continuity errors : sum local = 1.18187e-05, global = -1.77457e-06, cumulative = -0.00167772
DICPCG:  Solving for p, Initial residual = 0.00259797, Final residual = 9.62787e-07, No Iterations 213
time step continuity errors : sum local = 1.00498e-08, global = 1.63973e-10, cumulative = -0.00167772
ExecutionTime = 6.49 s  ClockTime = 10 s

Time = 0.076

Courant Number mean: 0.873566 max: 1.27882
smoothSolver:  Solving for Ux, Initial residual = 0.0105942, Final residual = 2.56449e-06, No Iterations 4
smoothSolver:  Solving for Uy, Initial residual = 0.0849846, Final residual = 3.48295e-06, No Iterations 5
DICPCG:  Solving for p, Initial residual = 0.0222824, Final residual = 0.00101096, No Iterations 158
time step continuity errors : sum local = 1.07895e-05, global = 1.99269e-08, cumulative = -0.0016777
DICPCG:  Solving for p, Initial residual = 0.00719191, Final residual = 9.56218e-07, No Iterations 217
time step continuity errors : sum local = 6.79043e-09, global = 6.66172e-13, cumulative = -0.0016777
ExecutionTime = 6.58 s  ClockTime = 10 s

Time = 0.077

Courant Number mean: 0.882783 max: 1.2947
smoothSolver:  Solving for Ux, Initial residual = 0.0141287, Final residual = 3.46368e-06, No Iterations 4
smoothSolver:  Solving for Uy, Initial residual = 0.0670219, Final residual = 2.94541e-06, No Iterations 5
DICPCG:  Solving for p, Initial residual = 0.0266734, Final residual = 0.00101691, No Iterations 158
time step continuity errors : sum local = 8.86765e-06, global = -8.93422e-08, cumulative = -0.00167779
DICPCG:  Solving for p, Initial residual = 0.00404604, Final residual = 8.93152e-07, No Iterations 214
time step continuity errors : sum local = 1.11536e-08, global = 1.04559e-11, cumulative = -0.00167779
ExecutionTime = 6.69 s  ClockTime = 10 s

Time = 0.078

Courant Number mean: 0.894288 max: 1.31348
smoothSolver:  Solving for Ux, Initial residual = 0.013382, Final residual = 3.69346e-06, No Iterations 4
smoothSolver:  Solving for Uy, Initial residual = 0.0816372, Final residual = 3.80433e-06, No Iterations 5
DICPCG:  Solving for p, Initial residual = 0.023034, Final residual = 0.000957661, No Iterations 158
time step continuity errors : sum local = 1.00724e-05, global = -1.07121e-08, cumulative = -0.0016778
DICPCG:  Solving for p, Initial residual = 0.00696028, Final residual = 9.02854e-07, No Iterations 217
time step continuity errors : sum local = 6.47954e-09, global = 7.71747e-12, cumulative = -0.0016778
ExecutionTime = 6.79 s  ClockTime = 10 s

Time = 0.079

Courant Number mean: 0.903505 max: 1.32929
smoothSolver:  Solving for Ux, Initial residual = 0.0134689, Final residual = 3.71481e-06, No Iterations 4
smoothSolver:  Solving for Uy, Initial residual = 0.0647232, Final residual = 3.2241e-06, No Iterations 5
DICPCG:  Solving for p, Initial residual = 0.0264877, Final residual = 0.00101755, No Iterations 158
time step continuity errors : sum local = 8.85303e-06, global = -9.78028e-08, cumulative = -0.0016779
DICPCG:  Solving for p, Initial residual = 0.00405546, Final residual = 8.98638e-07, No Iterations 214
time step continuity errors : sum local = 1.12038e-08, global = 1.4122e-11, cumulative = -0.0016779
ExecutionTime = 6.88 s  ClockTime = 10 s

Time = 0.08

Courant Number mean: 0.91501 max: 1.34797
smoothSolver:  Solving for Ux, Initial residual = 0.0140805, Final residual = 4.37748e-06, No Iterations 4
smoothSolver:  Solving for Uy, Initial residual = 0.0789472, Final residual = 4.16169e-06, No Iterations 5
DICPCG:  Solving for p, Initial residual = 0.0218188, Final residual = 0.000873604, No Iterations 158
time step continuity errors : sum local = 9.16787e-06, global = -1.68734e-08, cumulative = -0.00167792
DICPCG:  Solving for p, Initial residual = 0.00684683, Final residual = 9.90269e-07, No Iterations 216
time step continuity errors : sum local = 7.06919e-09, global = -5.63404e-12, cumulative = -0.00167792
ExecutionTime = 7.02 s  ClockTime = 11 s

Time = 0.081

Courant Number mean: 0.924227 max: 1.36366
smoothSolver:  Solving for Ux, Initial residual = 0.0133394, Final residual = 4.10287e-06, No Iterations 4
smoothSolver:  Solving for Uy, Initial residual = 0.0625334, Final residual = 3.51971e-06, No Iterations 5
DICPCG:  Solving for p, Initial residual = 0.0257437, Final residual = 0.00122957, No Iterations 31
time step continuity errors : sum local = 1.06703e-05, global = -1.69532e-06, cumulative = -0.00167961
DICPCG:  Solving for p, Initial residual = 0.00287713, Final residual = 9.24844e-07, No Iterations 209
time step continuity errors : sum local = 7.90946e-09, global = 3.15022e-11, cumulative = -0.00167961
ExecutionTime = 7.09 s  ClockTime = 11 s

Time = 0.082

Courant Number mean: 0.933442 max: 1.37916
smoothSolver:  Solving for Ux, Initial residual = 0.00966468, Final residual = 3.06005e-06, No Iterations 4
smoothSolver:  Solving for Uy, Initial residual = 0.0627646, Final residual = 3.71583e-06, No Iterations 5
DICPCG:  Solving for p, Initial residual = 0.0247491, Final residual = 0.00122114, No Iterations 151
time step continuity errors : sum local = 1.08662e-05, global = 4.13063e-08, cumulative = -0.00167957
DICPCG:  Solving for p, Initial residual = 0.00402051, Final residual = 9.8214e-07, No Iterations 219
time step continuity errors : sum local = 1.19957e-08, global = -9.84599e-11, cumulative = -0.00167957
ExecutionTime = 7.18 s  ClockTime = 11 s

Time = 0.083

Courant Number mean: 0.944947 max: 1.39767
smoothSolver:  Solving for Ux, Initial residual = 0.0180652, Final residual = 6.95302e-06, No Iterations 4
smoothSolver:  Solving for Uy, Initial residual = 0.0752335, Final residual = 4.71305e-06, No Iterations 5
DICPCG:  Solving for p, Initial residual = 0.0205328, Final residual = 0.000958595, No Iterations 158
time step continuity errors : sum local = 1.00275e-05, global = 1.38674e-07, cumulative = -0.00167943
DICPCG:  Solving for p, Initial residual = 0.00683558, Final residual = 9.36514e-07, No Iterations 222
time step continuity errors : sum local = 6.64017e-09, global = -9.55656e-12, cumulative = -0.00167943
ExecutionTime = 7.28 s  ClockTime = 11 s

Time = 0.084

Courant Number mean: 0.954163 max: 1.41318
smoothSolver:  Solving for Ux, Initial residual = 0.0145273, Final residual = 5.39669e-06, No Iterations 4
smoothSolver:  Solving for Uy, Initial residual = 0.0595442, Final residual = 3.97635e-06, No Iterations 5
DICPCG:  Solving for p, Initial residual = 0.0242414, Final residual = 0.00121108, No Iterations 30
time step continuity errors : sum local = 1.04971e-05, global = -1.6499e-06, cumulative = -0.00168108
DICPCG:  Solving for p, Initial residual = 0.00279322, Final residual = 9.81939e-07, No Iterations 212
time step continuity errors : sum local = 8.3975e-09, global = 6.47455e-11, cumulative = -0.00168108
ExecutionTime = 7.34 s  ClockTime = 11 s

Time = 0.085

Courant Number mean: 0.963378 max: 1.4285
smoothSolver:  Solving for Ux, Initial residual = 0.00928761, Final residual = 3.44483e-06, No Iterations 4
smoothSolver:  Solving for Uy, Initial residual = 0.0598232, Final residual = 4.19252e-06, No Iterations 5
DICPCG:  Solving for p, Initial residual = 0.023197, Final residual = 0.000941579, No Iterations 158
time step continuity errors : sum local = 8.36557e-06, global = -7.90809e-08, cumulative = -0.00168116
DICPCG:  Solving for p, Initial residual = 0.00385015, Final residual = 9.29765e-07, No Iterations 211
time step continuity errors : sum local = 1.13464e-08, global = -1.54124e-11, cumulative = -0.00168116
ExecutionTime = 7.42 s  ClockTime = 11 s

Time = 0.086

Courant Number mean: 0.974883 max: 1.44682
smoothSolver:  Solving for Ux, Initial residual = 0.0122205, Final residual = 4.8304e-06, No Iterations 4
smoothSolver:  Solving for Uy, Initial residual = 0.0717796, Final residual = 5.31094e-06, No Iterations 5
DICPCG:  Solving for p, Initial residual = 0.0203436, Final residual = 0.00100999, No Iterations 150
time step continuity errors : sum local = 1.05205e-05, global = -8.02836e-08, cumulative = -0.00168124
DICPCG:  Solving for p, Initial residual = 0.00689875, Final residual = 9.01777e-07, No Iterations 220
time step continuity errors : sum local = 6.35941e-09, global = 4.74e-12, cumulative = -0.00168124
ExecutionTime = 7.53 s  ClockTime = 11 s

Time = 0.087

Courant Number mean: 0.984099 max: 1.46215
smoothSolver:  Solving for Ux, Initial residual = 0.0122505, Final residual = 5.04243e-06, No Iterations 4
smoothSolver:  Solving for Uy, Initial residual = 0.0568366, Final residual = 4.47331e-06, No Iterations 5
DICPCG:  Solving for p, Initial residual = 0.0227454, Final residual = 0.0010829, No Iterations 31
time step continuity errors : sum local = 9.38018e-06, global = -1.47231e-06, cumulative = -0.00168272
DICPCG:  Solving for p, Initial residual = 0.00266339, Final residual = 9.92495e-07, No Iterations 211
time step continuity errors : sum local = 8.49365e-09, global = 1.76885e-11, cumulative = -0.00168272
ExecutionTime = 7.59 s  ClockTime = 11 s

Time = 0.088

Courant Number mean: 0.993314 max: 1.4773
smoothSolver:  Solving for Ux, Initial residual = 0.00882628, Final residual = 3.73512e-06, No Iterations 4
smoothSolver:  Solving for Uy, Initial residual = 0.0570885, Final residual = 4.71014e-06, No Iterations 5
DICPCG:  Solving for p, Initial residual = 0.021071, Final residual = 0.00103356, No Iterations 23
time step continuity errors : sum local = 9.16748e-06, global = -4.43414e-07, cumulative = -0.00168316
DICPCG:  Solving for p, Initial residual = 0.00215626, Final residual = 9.99901e-07, No Iterations 199
time step continuity errors : sum local = 8.74356e-09, global = -4.51798e-11, cumulative = -0.00168316
ExecutionTime = 7.65 s  ClockTime = 11 s

Time = 0.089

Courant Number mean: 1.00253 max: 1.49243
smoothSolver:  Solving for Ux, Initial residual = 0.00841612, Final residual = 3.74329e-06, No Iterations 4
smoothSolver:  Solving for Uy, Initial residual = 0.055076, Final residual = 4.77576e-06, No Iterations 5
DICPCG:  Solving for p, Initial residual = 0.0227206, Final residual = 0.00107247, No Iterations 22
time step continuity errors : sum local = 9.26784e-06, global = -2.14284e-06, cumulative = -0.0016853
DICPCG:  Solving for p, Initial residual = 0.00240673, Final residual = 9.74519e-07, No Iterations 204
time step continuity errors : sum local = 8.29325e-09, global = 6.72974e-11, cumulative = -0.0016853
ExecutionTime = 7.72 s  ClockTime = 12 s

Time = 0.09

Courant Number mean: 1.01174 max: 1.5075
smoothSolver:  Solving for Ux, Initial residual = 0.0082075, Final residual = 3.79685e-06, No Iterations 4
smoothSolver:  Solving for Uy, Initial residual = 0.0555522, Final residual = 5.04428e-06, No Iterations 5
DICPCG:  Solving for p, Initial residual = 0.0195893, Final residual = 0.000889932, No Iterations 21
time step continuity errors : sum local = 7.91836e-06, global = -3.30976e-07, cumulative = -0.00168563
DICPCG:  Solving for p, Initial residual = 0.00203682, Final residual = 8.34582e-07, No Iterations 205
time step continuity errors : sum local = 7.32771e-09, global = -2.92253e-12, cumulative = -0.00168563
ExecutionTime = 7.86 s  ClockTime = 12 s

Time = 0.091

Courant Number mean: 1.02096 max: 1.52252
smoothSolver:  Solving for Ux, Initial residual = 0.00806807, Final residual = 3.88042e-06, No Iterations 4
smoothSolver:  Solving for Uy, Initial residual = 0.0533109, Final residual = 5.09221e-06, No Iterations 5
DICPCG:  Solving for p, Initial residual = 0.0213025, Final residual = 0.00106023, No Iterations 22
time step continuity errors : sum local = 9.12765e-06, global = -2.2295e-06, cumulative = -0.00168786
DICPCG:  Solving for p, Initial residual = 0.00222068, Final residual = 9.52024e-07, No Iterations 204
time step continuity errors : sum local = 8.08194e-09, global = 6.40688e-12, cumulative = -0.00168786
ExecutionTime = 7.92 s  ClockTime = 12 s

Time = 0.092

Courant Number mean: 1.03017 max: 1.53748
smoothSolver:  Solving for Ux, Initial residual = 0.00800724, Final residual = 3.99278e-06, No Iterations 4
smoothSolver:  Solving for Uy, Initial residual = 0.0541554, Final residual = 5.4081e-06, No Iterations 5
DICPCG:  Solving for p, Initial residual = 0.0194219, Final residual = 0.000910558, No Iterations 21
time step continuity errors : sum local = 8.12647e-06, global = -1.08055e-07, cumulative = -0.00168797
DICPCG:  Solving for p, Initial residual = 0.00204936, Final residual = 8.40129e-07, No Iterations 205
time step continuity errors : sum local = 7.39998e-09, global = -7.86993e-13, cumulative = -0.00168797
ExecutionTime = 7.99 s  ClockTime = 12 s

Time = 0.093

Courant Number mean: 1.03938 max: 1.5524
smoothSolver:  Solving for Ux, Initial residual = 0.00788696, Final residual = 4.0757e-06, No Iterations 4
smoothSolver:  Solving for Uy, Initial residual = 0.0516242, Final residual = 5.4201e-06, No Iterations 5
DICPCG:  Solving for p, Initial residual = 0.0212786, Final residual = 0.00105392, No Iterations 24
time step continuity errors : sum local = 9.03015e-06, global = -2.26656e-06, cumulative = -0.00169024
DICPCG:  Solving for p, Initial residual = 0.00215671, Final residual = 9.96688e-07, No Iterations 202
time step continuity errors : sum local = 8.42464e-09, global = 2.29652e-13, cumulative = -0.00169024
ExecutionTime = 8.05 s  ClockTime = 12 s

Time = 0.094

Courant Number mean: 1.0486 max: 1.56728
smoothSolver:  Solving for Ux, Initial residual = 0.00776606, Final residual = 4.17663e-06, No Iterations 4
smoothSolver:  Solving for Uy, Initial residual = 0.0528624, Final residual = 5.79585e-06, No Iterations 5
DICPCG:  Solving for p, Initial residual = 0.0186738, Final residual = 0.000850905, No Iterations 158
time step continuity errors : sum local = 7.63348e-06, global = 5.21675e-08, cumulative = -0.00169019
DICPCG:  Solving for p, Initial residual = 0.00974855, Final residual = 9.08183e-07, No Iterations 218
time step continuity errors : sum local = 4.56967e-09, global = 1.94424e-11, cumulative = -0.00169019
ExecutionTime = 8.15 s  ClockTime = 12 s

Time = 0.095

Courant Number mean: 1.05552 max: 1.57908
smoothSolver:  Solving for Ux, Initial residual = 0.0108092, Final residual = 5.56234e-06, No Iterations 4
smoothSolver:  Solving for Uy, Initial residual = 0.0386564, Final residual = 4.45069e-06, No Iterations 5
DICPCG:  Solving for p, Initial residual = 0.0265604, Final residual = 0.00115247, No Iterations 158
time step continuity errors : sum local = 8.08548e-06, global = -5.37779e-08, cumulative = -0.00169024
DICPCG:  Solving for p, Initial residual = 0.00454088, Final residual = 9.13477e-07, No Iterations 215
time step continuity errors : sum local = 9.82208e-09, global = 1.50816e-11, cumulative = -0.00169024
ExecutionTime = 8.26 s  ClockTime = 12 s

Time = 0.096

Courant Number mean: 1.06473 max: 1.59373
smoothSolver:  Solving for Ux, Initial residual = 0.0112684, Final residual = 6.42767e-06, No Iterations 4
smoothSolver:  Solving for Uy, Initial residual = 0.0504065, Final residual = 6.00954e-06, No Iterations 5
DICPCG:  Solving for p, Initial residual = 0.0206297, Final residual = 0.000996926, No Iterations 30
time step continuity errors : sum local = 8.69932e-06, global = -1.14312e-06, cumulative = -0.00169138
DICPCG:  Solving for p, Initial residual = 0.00245959, Final residual = 9.51152e-07, No Iterations 209
time step continuity errors : sum local = 8.20161e-09, global = 1.08712e-11, cumulative = -0.00169138
ExecutionTime = 8.33 s  ClockTime = 13 s

Time = 0.097

Courant Number mean: 1.07395 max: 1.60849
smoothSolver:  Solving for Ux, Initial residual = 0.00786798, Final residual = 4.56475e-06, No Iterations 4
smoothSolver:  Solving for Uy, Initial residual = 0.0498059, Final residual = 6.20237e-06, No Iterations 5
DICPCG:  Solving for p, Initial residual = 0.0187279, Final residual = 0.000764625, No Iterations 157
time step continuity errors : sum local = 6.72409e-06, global = -9.04571e-08, cumulative = -0.00169147
DICPCG:  Solving for p, Initial residual = 0.00875004, Final residual = 9.99843e-07, No Iterations 220
time step continuity errors : sum local = 5.22616e-09, global = 1.01586e-11, cumulative = -0.00169147
ExecutionTime = 8.41 s  ClockTime = 13 s

Time = 0.098

Courant Number mean: 1.08087 max: 1.62015
smoothSolver:  Solving for Ux, Initial residual = 0.0100186, Final residual = 5.74064e-06, No Iterations 4
smoothSolver:  Solving for Uy, Initial residual = 0.0371053, Final residual = 4.84255e-06, No Iterations 5
DICPCG:  Solving for p, Initial residual = 0.0244859, Final residual = 0.00112932, No Iterations 158
time step continuity errors : sum local = 7.9588e-06, global = -6.19407e-08, cumulative = -0.00169153
DICPCG:  Solving for p, Initial residual = 0.00444276, Final residual = 8.7382e-07, No Iterations 215
time step continuity errors : sum local = 9.41086e-09, global = 1.35054e-11, cumulative = -0.00169153
ExecutionTime = 8.52 s  ClockTime = 13 s

Time = 0.099

Courant Number mean: 1.09008 max: 1.63466
smoothSolver:  Solving for Ux, Initial residual = 0.0111714, Final residual = 7.04196e-06, No Iterations 4
smoothSolver:  Solving for Uy, Initial residual = 0.0484453, Final residual = 6.53274e-06, No Iterations 5
DICPCG:  Solving for p, Initial residual = 0.0197977, Final residual = 0.00073229, No Iterations 158
time step continuity errors : sum local = 6.39694e-06, global = 5.9416e-08, cumulative = -0.00169148
DICPCG:  Solving for p, Initial residual = 0.00860849, Final residual = 9.03334e-07, No Iterations 217
time step continuity errors : sum local = 4.79074e-09, global = 2.91538e-12, cumulative = -0.00169148
ExecutionTime = 8.61 s  ClockTime = 13 s

Time = 0.1

Courant Number mean: 1.097 max: 1.64626
smoothSolver:  Solving for Ux, Initial residual = 0.0103797, Final residual = 6.47556e-06, No Iterations 4
smoothSolver:  Solving for Uy, Initial residual = 0.0360927, Final residual = 5.09557e-06, No Iterations 5
DICPCG:  Solving for p, Initial residual = 0.0243599, Final residual = 0.00115657, No Iterations 158
time step continuity errors : sum local = 8.16564e-06, global = -1.10954e-07, cumulative = -0.00169159
DICPCG:  Solving for p, Initial residual = 0.00449836, Final residual = 9.30608e-07, No Iterations 216
time step continuity errors : sum local = 1.00361e-08, global = 3.19918e-12, cumulative = -0.00169159
ExecutionTime = 8.77 s  ClockTime = 13 s

Time = 0.101

Courant Number mean: 1.10621 max: 1.66068
smoothSolver:  Solving for Ux, Initial residual = 0.0116349, Final residual = 7.93252e-06, No Iterations 4
smoothSolver:  Solving for Uy, Initial residual = 0.0472463, Final residual = 6.87695e-06, No Iterations 5
DICPCG:  Solving for p, Initial residual = 0.0196943, Final residual = 0.000855283, No Iterations 158
time step continuity errors : sum local = 7.47526e-06, global = 7.20461e-08, cumulative = -0.00169151
DICPCG:  Solving for p, Initial residual = 0.00878904, Final residual = 9.07138e-07, No Iterations 219
time step continuity errors : sum local = 4.81391e-09, global = -5.66034e-12, cumulative = -0.00169151
ExecutionTime = 8.86 s  ClockTime = 13 s

Time = 0.102

Courant Number mean: 1.11313 max: 1.6722
smoothSolver:  Solving for Ux, Initial residual = 0.010753, Final residual = 7.20322e-06, No Iterations 4
smoothSolver:  Solving for Uy, Initial residual = 0.0351283, Final residual = 5.35608e-06, No Iterations 5
DICPCG:  Solving for p, Initial residual = 0.0220235, Final residual = 0.00105623, No Iterations 30
time step continuity errors : sum local = 7.47878e-06, global = -1.22143e-06, cumulative = -0.00169274
DICPCG:  Solving for p, Initial residual = 0.00272131, Final residual = 9.34244e-07, No Iterations 213
time step continuity errors : sum local = 6.54373e-09, global = 7.62619e-11, cumulative = -0.00169274
ExecutionTime = 8.93 s  ClockTime = 14 s

Time = 0.103

Courant Number mean: 1.12005 max: 1.68351
smoothSolver:  Solving for Ux, Initial residual = 0.00726259, Final residual = 4.73664e-06, No Iterations 4
smoothSolver:  Solving for Uy, Initial residual = 0.0356008, Final residual = 5.59689e-06, No Iterations 5
DICPCG:  Solving for p, Initial residual = 0.0206435, Final residual = 0.000929925, No Iterations 158
time step continuity errors : sum local = 6.77509e-06, global = -6.37303e-08, cumulative = -0.0016928
DICPCG:  Solving for p, Initial residual = 0.00417867, Final residual = 9.87199e-07, No Iterations 214
time step continuity errors : sum local = 1.04497e-08, global = 2.46521e-11, cumulative = -0.0016928
ExecutionTime = 9.01 s  ClockTime = 14 s

Time = 0.104

Courant Number mean: 1.12926 max: 1.69784
smoothSolver:  Solving for Ux, Initial residual = 0.00995422, Final residual = 7.03807e-06, No Iterations 4
smoothSolver:  Solving for Uy, Initial residual = 0.0455473, Final residual = 7.3795e-06, No Iterations 5
DICPCG:  Solving for p, Initial residual = 0.0180949, Final residual = 0.000759882, No Iterations 158
time step continuity errors : sum local = 6.65169e-06, global = 6.58516e-08, cumulative = -0.00169273
DICPCG:  Solving for p, Initial residual = 0.00852403, Final residual = 8.89082e-07, No Iterations 219
time step continuity errors : sum local = 4.72739e-09, global = 5.82619e-12, cumulative = -0.00169273
ExecutionTime = 9.12 s  ClockTime = 14 s

Time = 0.105

Courant Number mean: 1.13618 max: 1.70923
smoothSolver:  Solving for Ux, Initial residual = 0.00930948, Final residual = 6.42284e-06, No Iterations 4
smoothSolver:  Solving for Uy, Initial residual = 0.033835, Final residual = 5.74296e-06, No Iterations 5
DICPCG:  Solving for p, Initial residual = 0.021742, Final residual = 0.0010417, No Iterations 30
time step continuity errors : sum local = 7.40119e-06, global = -1.21754e-06, cumulative = -0.00169395
DICPCG:  Solving for p, Initial residual = 0.00269089, Final residual = 9.39437e-07, No Iterations 212
time step continuity errors : sum local = 6.60382e-09, global = 7.09434e-11, cumulative = -0.00169395
ExecutionTime = 9.18 s  ClockTime = 14 s

Time = 0.106

Courant Number mean: 1.1431 max: 1.72042
smoothSolver:  Solving for Ux, Initial residual = 0.0069031, Final residual = 4.89999e-06, No Iterations 4
smoothSolver:  Solving for Uy, Initial residual = 0.0343081, Final residual = 5.99923e-06, No Iterations 5
DICPCG:  Solving for p, Initial residual = 0.0181569, Final residual = 0.000868128, No Iterations 22
time step continuity errors : sum local = 6.35341e-06, global = -1.50198e-08, cumulative = -0.00169397
DICPCG:  Solving for p, Initial residual = 0.00192011, Final residual = 9.55931e-07, No Iterations 201
time step continuity errors : sum local = 6.91537e-09, global = -7.01792e-12, cumulative = -0.00169397
ExecutionTime = 9.25 s  ClockTime = 14 s

Time = 0.107

Courant Number mean: 1.15002 max: 1.73161
smoothSolver:  Solving for Ux, Initial residual = 0.00655486, Final residual = 4.80822e-06, No Iterations 4
smoothSolver:  Solving for Uy, Initial residual = 0.0327978, Final residual = 5.92684e-06, No Iterations 5
DICPCG:  Solving for p, Initial residual = 0.0200487, Final residual = 0.000979438, No Iterations 22
time step continuity errors : sum local = 6.93681e-06, global = -1.84391e-06, cumulative = -0.00169581
DICPCG:  Solving for p, Initial residual = 0.00220332, Final residual = 9.13164e-07, No Iterations 205
time step continuity errors : sum local = 6.3868e-09, global = 2.7054e-11, cumulative = -0.00169581
ExecutionTime = 9.31 s  ClockTime = 14 s

Time = 0.108

Courant Number mean: 1.15694 max: 1.74275
smoothSolver:  Solving for Ux, Initial residual = 0.00644811, Final residual = 4.85196e-06, No Iterations 4
smoothSolver:  Solving for Uy, Initial residual = 0.0337692, Final residual = 6.27781e-06, No Iterations 5
DICPCG:  Solving for p, Initial residual = 0.0178628, Final residual = 0.000833778, No Iterations 21
time step continuity errors : sum local = 6.16445e-06, global = 2.68267e-07, cumulative = -0.00169554
DICPCG:  Solving for p, Initial residual = 0.00191661, Final residual = 8.29557e-07, No Iterations 205
time step continuity errors : sum local = 6.0622e-09, global = -5.79123e-13, cumulative = -0.00169554
ExecutionTime = 9.37 s  ClockTime = 14 s

Time = 0.109

Courant Number mean: 1.16386 max: 1.75386
smoothSolver:  Solving for Ux, Initial residual = 0.00629844, Final residual = 4.8579e-06, No Iterations 4
smoothSolver:  Solving for Uy, Initial residual = 0.0317186, Final residual = 6.10369e-06, No Iterations 5
DICPCG:  Solving for p, Initial residual = 0.0185788, Final residual = 0.000806809, No Iterations 158
time step continuity errors : sum local = 5.6794e-06, global = -4.83742e-09, cumulative = -0.00169555
DICPCG:  Solving for p, Initial residual = 0.00188871, Final residual = 8.82729e-07, No Iterations 205
time step continuity errors : sum local = 6.61369e-09, global = 3.81977e-11, cumulative = -0.00169555
ExecutionTime = 9.47 s  ClockTime = 14 s

Time = 0.11

Courant Number mean: 1.17077 max: 1.76492
smoothSolver:  Solving for Ux, Initial residual = 0.00707253, Final residual = 5.99669e-06, No Iterations 4
smoothSolver:  Solving for Uy, Initial residual = 0.0321246, Final residual = 6.38035e-06, No Iterations 5
DICPCG:  Solving for p, Initial residual = 0.0180672, Final residual = 0.000897369, No Iterations 30
time step continuity errors : sum local = 6.46433e-06, global = -9.30292e-07, cumulative = -0.00169648
DICPCG:  Solving for p, Initial residual = 0.00195864, Final residual = 9.91515e-07, No Iterations 204
[...]
DICPCG:  Solving for p, Initial residual = 0.0967729, Final residual = 0.00474931, No Iterations 22
time step continuity errors : sum local = 9.15335e-07, global = 1.41035e-07, cumulative = -0.00134271
DICPCG:  Solving for p, Initial residual = 0.00801971, Final residual = 8.90649e-07, No Iterations 216
time step continuity errors : sum local = 1.85333e-10, global = 7.48777e-13, cumulative = -0.00134271
ExecutionTime = 78.55 s  ClockTime = 125 s

Time = 0.974

Courant Number mean: 0.184459 max: 0.26931
smoothSolver:  Solving for Ux, Initial residual = 0.00144248, Final residual = 1.04791e-06, No Iterations 2
smoothSolver:  Solving for Uy, Initial residual = 0.000184109, Final residual = 3.9152e-06, No Iterations 1
DICPCG:  Solving for p, Initial residual = 0.166324, Final residual = 0.00830099, No Iterations 27
time step continuity errors : sum local = 1.8213e-06, global = 3.19213e-07, cumulative = -0.00134239
DICPCG:  Solving for p, Initial residual = 0.0132619, Final residual = 9.35483e-07, No Iterations 215
time step continuity errors : sum local = 2.32653e-10, global = 4.44765e-13, cumulative = -0.00134239
ExecutionTime = 78.62 s  ClockTime = 125 s

Time = 0.975

Courant Number mean: 0.184458 max: 0.269294
smoothSolver:  Solving for Ux, Initial residual = 0.0014455, Final residual = 1.04774e-06, No Iterations 2
smoothSolver:  Solving for Uy, Initial residual = 0.000196735, Final residual = 4.41072e-06, No Iterations 1
DICPCG:  Solving for p, Initial residual = 0.0971508, Final residual = 0.004474, No Iterations 23
time step continuity errors : sum local = 8.59269e-07, global = 1.3207e-07, cumulative = -0.00134226
DICPCG:  Solving for p, Initial residual = 0.00779909, Final residual = 9.90683e-07, No Iterations 214
time step continuity errors : sum local = 2.05455e-10, global = 1.50946e-14, cumulative = -0.00134226
ExecutionTime = 78.68 s  ClockTime = 125 s

Time = 0.976

Courant Number mean: 0.184458 max: 0.269275
smoothSolver:  Solving for Ux, Initial residual = 0.00143835, Final residual = 1.04496e-06, No Iterations 2
smoothSolver:  Solving for Uy, Initial residual = 0.000182966, Final residual = 3.88567e-06, No Iterations 1
DICPCG:  Solving for p, Initial residual = 0.166182, Final residual = 0.00824233, No Iterations 27
time step continuity errors : sum local = 1.80989e-06, global = 3.20812e-07, cumulative = -0.00134194
DICPCG:  Solving for p, Initial residual = 0.0132207, Final residual = 9.32638e-07, No Iterations 215
time step continuity errors : sum local = 2.32094e-10, global = 1.87588e-13, cumulative = -0.00134194
ExecutionTime = 78.75 s  ClockTime = 125 s

Time = 0.977

Courant Number mean: 0.184458 max: 0.269258
smoothSolver:  Solving for Ux, Initial residual = 0.00144078, Final residual = 1.04459e-06, No Iterations 2
smoothSolver:  Solving for Uy, Initial residual = 0.000196034, Final residual = 4.39849e-06, No Iterations 1
DICPCG:  Solving for p, Initial residual = 0.0971891, Final residual = 0.00447438, No Iterations 23
time step continuity errors : sum local = 8.58995e-07, global = 1.31856e-07, cumulative = -0.00134181
DICPCG:  Solving for p, Initial residual = 0.00780052, Final residual = 9.16167e-07, No Iterations 215
time step continuity errors : sum local = 1.89931e-10, global = -8.26577e-13, cumulative = -0.00134181
ExecutionTime = 78.81 s  ClockTime = 125 s

Time = 0.978

Courant Number mean: 0.184458 max: 0.26924
smoothSolver:  Solving for Ux, Initial residual = 0.00143343, Final residual = 1.04154e-06, No Iterations 2
smoothSolver:  Solving for Uy, Initial residual = 0.000182108, Final residual = 3.86877e-06, No Iterations 1
DICPCG:  Solving for p, Initial residual = 0.0912174, Final residual = 0.00440847, No Iterations 25
time step continuity errors : sum local = 8.88208e-07, global = 1.66247e-07, cumulative = -0.00134164
DICPCG:  Solving for p, Initial residual = 0.00764182, Final residual = 9.28427e-07, No Iterations 211
time step continuity errors : sum local = 2.00867e-10, global = 6.1332e-13, cumulative = -0.00134164
ExecutionTime = 78.87 s  ClockTime = 125 s

Time = 0.979

Courant Number mean: 0.184458 max: 0.269222
smoothSolver:  Solving for Ux, Initial residual = 0.00142984, Final residual = 1.0401e-06, No Iterations 2
smoothSolver:  Solving for Uy, Initial residual = 0.000183277, Final residual = 3.9611e-06, No Iterations 1
DICPCG:  Solving for p, Initial residual = 0.168297, Final residual = 0.00836348, No Iterations 26
time step continuity errors : sum local = 1.81417e-06, global = 3.24385e-07, cumulative = -0.00134131
DICPCG:  Solving for p, Initial residual = 0.0130762, Final residual = 9.639e-07, No Iterations 215
time step continuity errors : sum local = 2.37381e-10, global = 3.8601e-13, cumulative = -0.00134131
ExecutionTime = 78.93 s  ClockTime = 126 s

Time = 0.98

Courant Number mean: 0.184458 max: 0.269207
smoothSolver:  Solving for Ux, Initial residual = 0.00143332, Final residual = 1.03972e-06, No Iterations 2
smoothSolver:  Solving for Uy, Initial residual = 0.000194357, Final residual = 4.3474e-06, No Iterations 1
DICPCG:  Solving for p, Initial residual = 0.0967989, Final residual = 0.00475093, No Iterations 22
time step continuity errors : sum local = 9.15301e-07, global = 1.41028e-07, cumulative = -0.00134117
DICPCG:  Solving for p, Initial residual = 0.00802134, Final residual = 8.76912e-07, No Iterations 216
time step continuity errors : sum local = 1.82409e-10, global = 7.26728e-13, cumulative = -0.00134117
ExecutionTime = 79.06 s  ClockTime = 126 s

Time = 0.981

Courant Number mean: 0.184458 max: 0.269188
smoothSolver:  Solving for Ux, Initial residual = 0.00142422, Final residual = 1.03539e-06, No Iterations 2
smoothSolver:  Solving for Uy, Initial residual = 0.000181123, Final residual = 3.85847e-06, No Iterations 1
DICPCG:  Solving for p, Initial residual = 0.166368, Final residual = 0.00830051, No Iterations 27
time step continuity errors : sum local = 1.82059e-06, global = 3.19205e-07, cumulative = -0.00134085
DICPCG:  Solving for p, Initial residual = 0.0132635, Final residual = 9.19057e-07, No Iterations 215
time step continuity errors : sum local = 2.28496e-10, global = 4.29606e-13, cumulative = -0.00134085
ExecutionTime = 79.12 s  ClockTime = 126 s

Time = 0.982

Courant Number mean: 0.184458 max: 0.269172
smoothSolver:  Solving for Ux, Initial residual = 0.00142794, Final residual = 1.03631e-06, No Iterations 2
smoothSolver:  Solving for Uy, Initial residual = 0.000193986, Final residual = 4.35696e-06, No Iterations 1
DICPCG:  Solving for p, Initial residual = 0.0971778, Final residual = 0.00447483, No Iterations 23
time step continuity errors : sum local = 8.59106e-07, global = 1.32058e-07, cumulative = -0.00134072
DICPCG:  Solving for p, Initial residual = 0.00780006, Final residual = 9.1736e-07, No Iterations 215
time step continuity errors : sum local = 1.9018e-10, global = -7.87848e-13, cumulative = -0.00134072
ExecutionTime = 79.19 s  ClockTime = 126 s

Time = 0.983

Courant Number mean: 0.184458 max: 0.269153
smoothSolver:  Solving for Ux, Initial residual = 0.0014199, Final residual = 1.03231e-06, No Iterations 2
smoothSolver:  Solving for Uy, Initial residual = 0.000179998, Final residual = 3.82922e-06, No Iterations 1
DICPCG:  Solving for p, Initial residual = 0.166225, Final residual = 0.00824189, No Iterations 27
time step continuity errors : sum local = 1.80921e-06, global = 3.20804e-07, cumulative = -0.0013404
DICPCG:  Solving for p, Initial residual = 0.0132208, Final residual = 9.29405e-07, No Iterations 215
time step continuity errors : sum local = 2.3122e-10, global = 1.81532e-13, cumulative = -0.0013404
ExecutionTime = 79.26 s  ClockTime = 126 s

Time = 0.984

Courant Number mean: 0.184458 max: 0.269137
smoothSolver:  Solving for Ux, Initial residual = 0.00142296, Final residual = 1.0328e-06, No Iterations 2
smoothSolver:  Solving for Uy, Initial residual = 0.000193307, Final residual = 4.345e-06, No Iterations 1
DICPCG:  Solving for p, Initial residual = 0.0972151, Final residual = 0.00447519, No Iterations 23
time step continuity errors : sum local = 8.58839e-07, global = 1.31844e-07, cumulative = -0.00134027
DICPCG:  Solving for p, Initial residual = 0.00780154, Final residual = 9.05347e-07, No Iterations 215
time step continuity errors : sum local = 1.87623e-10, global = -8.10179e-13, cumulative = -0.00134027
ExecutionTime = 79.33 s  ClockTime = 126 s

Time = 0.985

Courant Number mean: 0.184458 max: 0.269118
smoothSolver:  Solving for Ux, Initial residual = 0.00141485, Final residual = 1.02859e-06, No Iterations 2
smoothSolver:  Solving for Uy, Initial residual = 0.000179153, Final residual = 3.81247e-06, No Iterations 1
DICPCG:  Solving for p, Initial residual = 0.166226, Final residual = 0.00824323, No Iterations 27
time step continuity errors : sum local = 1.80948e-06, global = 3.2086e-07, cumulative = -0.00133995
DICPCG:  Solving for p, Initial residual = 0.0132227, Final residual = 9.42604e-07, No Iterations 215
time step continuity errors : sum local = 2.34498e-10, global = 1.87756e-13, cumulative = -0.00133995
ExecutionTime = 79.39 s  ClockTime = 126 s

Time = 0.986

Courant Number mean: 0.184457 max: 0.269102
smoothSolver:  Solving for Ux, Initial residual = 0.00141803, Final residual = 1.0297e-06, No Iterations 2
smoothSolver:  Solving for Uy, Initial residual = 0.000192543, Final residual = 4.33003e-06, No Iterations 1
DICPCG:  Solving for p, Initial residual = 0.0972251, Final residual = 0.00447588, No Iterations 23
time step continuity errors : sum local = 8.58867e-07, global = 1.31824e-07, cumulative = -0.00133982
DICPCG:  Solving for p, Initial residual = 0.00780251, Final residual = 9.14087e-07, No Iterations 215
time step continuity errors : sum local = 1.89411e-10, global = -7.78604e-13, cumulative = -0.00133982
ExecutionTime = 79.47 s  ClockTime = 126 s

Time = 0.987

Courant Number mean: 0.184457 max: 0.269084
smoothSolver:  Solving for Ux, Initial residual = 0.0014097, Final residual = 1.02552e-06, No Iterations 2
smoothSolver:  Solving for Uy, Initial residual = 0.000178321, Final residual = 3.79635e-06, No Iterations 1
DICPCG:  Solving for p, Initial residual = 0.0912456, Final residual = 0.00440824, No Iterations 25
time step continuity errors : sum local = 8.8779e-07, global = 1.66248e-07, cumulative = -0.00133965
DICPCG:  Solving for p, Initial residual = 0.00764135, Final residual = 9.33087e-07, No Iterations 211
time step continuity errors : sum local = 2.01794e-10, global = 5.82142e-13, cumulative = -0.00133965
ExecutionTime = 79.53 s  ClockTime = 126 s

Time = 0.988

Courant Number mean: 0.184457 max: 0.269066
smoothSolver:  Solving for Ux, Initial residual = 0.00140614, Final residual = 1.02512e-06, No Iterations 2
smoothSolver:  Solving for Uy, Initial residual = 0.000179517, Final residual = 3.8891e-06, No Iterations 1
DICPCG:  Solving for p, Initial residual = 0.168349, Final residual = 0.00836573, No Iterations 26
time step continuity errors : sum local = 1.81394e-06, global = 3.24373e-07, cumulative = -0.00133933
DICPCG:  Solving for p, Initial residual = 0.0130789, Final residual = 9.71465e-07, No Iterations 215
time step continuity errors : sum local = 2.39157e-10, global = 4.34292e-13, cumulative = -0.00133933
ExecutionTime = 79.6 s  ClockTime = 127 s

Time = 0.989

Courant Number mean: 0.184457 max: 0.269051
smoothSolver:  Solving for Ux, Initial residual = 0.00141021, Final residual = 1.0254e-06, No Iterations 2
smoothSolver:  Solving for Uy, Initial residual = 0.000190869, Final residual = 4.27833e-06, No Iterations 1
DICPCG:  Solving for p, Initial residual = 0.096829, Final residual = 0.00475279, No Iterations 22
time step continuity errors : sum local = 9.15257e-07, global = 1.41013e-07, cumulative = -0.00133919
DICPCG:  Solving for p, Initial residual = 0.00802324, Final residual = 8.92597e-07, No Iterations 216
time step continuity errors : sum local = 1.85597e-10, global = 7.41802e-13, cumulative = -0.00133919
ExecutionTime = 79.67 s  ClockTime = 127 s

Time = 0.99

Courant Number mean: 0.184457 max: 0.269033
smoothSolver:  Solving for Ux, Initial residual = 0.00140026, Final residual = 1.01967e-06, No Iterations 2
smoothSolver:  Solving for Uy, Initial residual = 0.000177367, Final residual = 3.78582e-06, No Iterations 1
DICPCG:  Solving for p, Initial residual = 0.166418, Final residual = 0.00830108, No Iterations 27
time step continuity errors : sum local = 1.82004e-06, global = 3.19197e-07, cumulative = -0.00133887
DICPCG:  Solving for p, Initial residual = 0.0132655, Final residual = 9.34569e-07, No Iterations 215
time step continuity errors : sum local = 2.3227e-10, global = 4.27261e-13, cumulative = -0.00133887
ExecutionTime = 79.79 s  ClockTime = 127 s

Time = 0.991

Courant Number mean: 0.184457 max: 0.26903
smoothSolver:  Solving for Ux, Initial residual = 0.00140505, Final residual = 1.0217e-06, No Iterations 2
smoothSolver:  Solving for Uy, Initial residual = 0.000190546, Final residual = 4.28826e-06, No Iterations 1
DICPCG:  Solving for p, Initial residual = 0.0972073, Final residual = 0.00447601, No Iterations 23
time step continuity errors : sum local = 8.58968e-07, global = 1.32043e-07, cumulative = -0.00133873
DICPCG:  Solving for p, Initial residual = 0.00780136, Final residual = 9.11552e-07, No Iterations 215
time step continuity errors : sum local = 1.88897e-10, global = -8.40938e-13, cumulative = -0.00133873
ExecutionTime = 79.85 s  ClockTime = 127 s

Time = 0.992

Courant Number mean: 0.184457 max: 0.269023
smoothSolver:  Solving for Ux, Initial residual = 0.00139589, Final residual = 1.01709e-06, No Iterations 2
smoothSolver:  Solving for Uy, Initial residual = 0.000176268, Final residual = 3.75667e-06, No Iterations 1
DICPCG:  Solving for p, Initial residual = 0.166272, Final residual = 0.00824169, No Iterations 27
time step continuity errors : sum local = 1.80852e-06, global = 3.20796e-07, cumulative = -0.00133841
DICPCG:  Solving for p, Initial residual = 0.0132214, Final residual = 9.34857e-07, No Iterations 215
time step continuity errors : sum local = 2.32497e-10, global = 2.22854e-13, cumulative = -0.00133841
ExecutionTime = 79.93 s  ClockTime = 127 s

Time = 0.993

Courant Number mean: 0.184457 max: 0.26902
smoothSolver:  Solving for Ux, Initial residual = 0.00140013, Final residual = 1.0186e-06, No Iterations 2
smoothSolver:  Solving for Uy, Initial residual = 0.000189892, Final residual = 4.27678e-06, No Iterations 1
DICPCG:  Solving for p, Initial residual = 0.0972433, Final residual = 0.00447575, No Iterations 23
time step continuity errors : sum local = 8.58594e-07, global = 1.31828e-07, cumulative = -0.00133828
DICPCG:  Solving for p, Initial residual = 0.00780241, Final residual = 9.16322e-07, No Iterations 215
time step continuity errors : sum local = 1.8982e-10, global = -8.07039e-13, cumulative = -0.00133828
ExecutionTime = 80 s  ClockTime = 127 s

Time = 0.994

Courant Number mean: 0.184457 max: 0.269014
smoothSolver:  Solving for Ux, Initial residual = 0.00139078, Final residual = 1.01387e-06, No Iterations 2
smoothSolver:  Solving for Uy, Initial residual = 0.000175436, Final residual = 3.74045e-06, No Iterations 1
DICPCG:  Solving for p, Initial residual = 0.16627, Final residual = 0.0082422, No Iterations 27
time step continuity errors : sum local = 1.80862e-06, global = 3.2085e-07, cumulative = -0.00133796
DICPCG:  Solving for p, Initial residual = 0.0132222, Final residual = 9.28936e-07, No Iterations 215
time step continuity errors : sum local = 2.31022e-10, global = 1.95535e-13, cumulative = -0.00133796
ExecutionTime = 80.06 s  ClockTime = 127 s

Time = 0.995

Courant Number mean: 0.184457 max: 0.269011
smoothSolver:  Solving for Ux, Initial residual = 0.00139511, Final residual = 1.0156e-06, No Iterations 2
smoothSolver:  Solving for Uy, Initial residual = 0.000189148, Final residual = 4.26254e-06, No Iterations 1
DICPCG:  Solving for p, Initial residual = 0.097252, Final residual = 0.00447647, No Iterations 23
time step continuity errors : sum local = 8.58641e-07, global = 1.31809e-07, cumulative = -0.00133783
DICPCG:  Solving for p, Initial residual = 0.00780328, Final residual = 9.07154e-07, No Iterations 215
time step continuity errors : sum local = 1.87903e-10, global = -7.74389e-13, cumulative = -0.00133783
ExecutionTime = 80.13 s  ClockTime = 127 s

Time = 0.996

Courant Number mean: 0.184457 max: 0.269004
smoothSolver:  Solving for Ux, Initial residual = 0.00138558, Final residual = 1.01078e-06, No Iterations 2
smoothSolver:  Solving for Uy, Initial residual = 0.000174623, Final residual = 3.72497e-06, No Iterations 1
DICPCG:  Solving for p, Initial residual = 0.166279, Final residual = 0.00824172, No Iterations 27
time step continuity errors : sum local = 1.8084e-06, global = 3.20856e-07, cumulative = -0.00133751
DICPCG:  Solving for p, Initial residual = 0.0132222, Final residual = 9.44332e-07, No Iterations 215
time step continuity errors : sum local = 2.34837e-10, global = 2.04704e-13, cumulative = -0.00133751
ExecutionTime = 80.19 s  ClockTime = 127 s

Time = 0.997

Courant Number mean: 0.184456 max: 0.269002
smoothSolver:  Solving for Ux, Initial residual = 0.00139003, Final residual = 1.01252e-06, No Iterations 2
smoothSolver:  Solving for Uy, Initial residual = 0.000188412, Final residual = 4.24812e-06, No Iterations 1
DICPCG:  Solving for p, Initial residual = 0.0972574, Final residual = 0.0044765, No Iterations 23
time step continuity errors : sum local = 8.58579e-07, global = 1.31804e-07, cumulative = -0.00133738
DICPCG:  Solving for p, Initial residual = 0.00780346, Final residual = 9.13305e-07, No Iterations 215
time step continuity errors : sum local = 1.89162e-10, global = -7.59888e-13, cumulative = -0.00133738
ExecutionTime = 80.26 s  ClockTime = 127 s

Time = 0.998

Courant Number mean: 0.184456 max: 0.268995
smoothSolver:  Solving for Ux, Initial residual = 0.00138023, Final residual = 1.00754e-06, No Iterations 2
smoothSolver:  Solving for Uy, Initial residual = 0.000173816, Final residual = 3.70943e-06, No Iterations 1
DICPCG:  Solving for p, Initial residual = 0.166287, Final residual = 0.00824059, No Iterations 27
time step continuity errors : sum local = 1.80804e-06, global = 3.20856e-07, cumulative = -0.00133706
DICPCG:  Solving for p, Initial residual = 0.0132214, Final residual = 9.37087e-07, No Iterations 215
time step continuity errors : sum local = 2.33021e-10, global = 1.95409e-13, cumulative = -0.00133706
ExecutionTime = 80.33 s  ClockTime = 128 s

Time = 0.999

Courant Number mean: 0.184456 max: 0.268992
smoothSolver:  Solving for Ux, Initial residual = 0.00138487, Final residual = 1.00921e-06, No Iterations 2
smoothSolver:  Solving for Uy, Initial residual = 0.000187676, Final residual = 4.23359e-06, No Iterations 1
DICPCG:  Solving for p, Initial residual = 0.175164, Final residual = 0.00828449, No Iterations 25
time step continuity errors : sum local = 1.73877e-06, global = 3.06934e-07, cumulative = -0.00133675
DICPCG:  Solving for p, Initial residual = 0.0136643, Final residual = 9.10421e-07, No Iterations 216
time step continuity errors : sum local = 2.18373e-10, global = -1.03264e-12, cumulative = -0.00133675
ExecutionTime = 80.4 s  ClockTime = 128 s

Time = 1

Courant Number mean: 0.184456 max: 0.268988
smoothSolver:  Solving for Ux, Initial residual = 0.00137964, Final residual = 1.0067e-06, No Iterations 2
smoothSolver:  Solving for Uy, Initial residual = 0.000184072, Final residual = 4.09821e-06, No Iterations 1
DICPCG:  Solving for p, Initial residual = 0.0957793, Final residual = 0.00467657, No Iterations 22
time step continuity errors : sum local = 9.08938e-07, global = 1.51325e-07, cumulative = -0.0013366
DICPCG:  Solving for p, Initial residual = 0.00792429, Final residual = 8.90879e-07, No Iterations 216
time step continuity errors : sum local = 1.86809e-10, global = 7.99459e-13, cumulative = -0.0013366
ExecutionTime = 80.52 s  ClockTime = 128 s

End

