/*---------------------------------------------------------------------------*\
  =========                 |
  \\      /  F ield         | OpenFOAM: The Open Source CFD Toolbox
   \\    /   O peration     | Website:  https://openfoam.org
    \\  /    A nd           | Version:  9
     \\/     M anipulation  |
\*---------------------------------------------------------------------------*/
Build  : 9-b456138dc4bc
Exec   : icoFoam
Date   : Mar 24 2022
Time   : 13:05:31
Host   : "3758fe76d85a"
PID    : 129
I/O    : uncollated
Case   : //data
nProcs : 1
sigFpe : Enabling floating point exception trapping (FOAM_SIGFPE).
fileModificationChecking : Monitoring run-time modified files using timeStampMaster (fileModificationSkew 10)
allowSystemOperations : Allowing user-supplied system call operations

// * * * * * * * * * * * * * * * * * * * * * * * * * * * * * * * * * * * * * //
Create time

Create mesh for time = 0

Reading transportProperties

Reading field p

Reading field U

Reading/calculating face flux field phi


Starting time loop

Time = 0.001

Courant Number mean: 0.0062 max: 0.445723
smoothSolver:  Solving for Ux, Initial residual = 0, Final residual = 0, No Iterations 0
smoothSolver:  Solving for Uy, Initial residual = 1, Final residual = 7.05016e-06, No Iterations 15
DICPCG:  Solving for p, Initial residual = 1, Final residual = 0.0408091, No Iterations 28
time step continuity errors : sum local = 0.513225, global = -0.00236741, cumulative = -0.00236741
DICPCG:  Solving for p, Initial residual = 0.118457, Final residual = 9.24575e-07, No Iterations 52
time step continuity errors : sum local = 4.65441e-05, global = 1.45577e-07, cumulative = -0.00236726
ExecutionTime = 0.03 s  ClockTime = 1 s

Time = 0.002

Courant Number mean: 1.45869 max: 22.4293
smoothSolver:  Solving for Ux, Initial residual = 0.681754, Final residual = 9.40345e-06, No Iterations 25
smoothSolver:  Solving for Uy, Initial residual = 0.777938, Final residual = 9.31552e-06, No Iterations 20
DICPCG:  Solving for p, Initial residual = 0.81525, Final residual = 0.0223081, No Iterations 33
time step continuity errors : sum local = 0.0445295, global = 0.00196169, cumulative = -0.000405577
DICPCG:  Solving for p, Initial residual = 0.150048, Final residual = 8.60065e-07, No Iterations 52
time step continuity errors : sum local = 5.91007e-06, global = -2.11508e-08, cumulative = -0.000405598
ExecutionTime = 0.04 s  ClockTime = 1 s

Time = 0.003

Courant Number mean: 1.96688 max: 18.289
smoothSolver:  Solving for Ux, Initial residual = 0.531205, Final residual = 7.29706e-06, No Iterations 21
smoothSolver:  Solving for Uy, Initial residual = 0.575729, Final residual = 6.82443e-06, No Iterations 24
DICPCG:  Solving for p, Initial residual = 0.520183, Final residual = 0.0205284, No Iterations 32
time step continuity errors : sum local = 0.0388926, global = 9.55665e-05, cumulative = -0.000310031
DICPCG:  Solving for p, Initial residual = 0.0613001, Final residual = 5.21463e-07, No Iterations 52
time step continuity errors : sum local = 5.96163e-06, global = -2.31636e-08, cumulative = -0.000310055
ExecutionTime = 0.04 s  ClockTime = 1 s

Time = 0.004

Courant Number mean: 1.59869 max: 14.3627
smoothSolver:  Solving for Ux, Initial residual = 0.575967, Final residual = 7.71932e-06, No Iterations 19
smoothSolver:  Solving for Uy, Initial residual = 0.555679, Final residual = 6.27373e-06, No Iterations 21
DICPCG:  Solving for p, Initial residual = 0.408611, Final residual = 0.0202437, No Iterations 30
time step continuity errors : sum local = 0.0325197, global = -8.68617e-05, cumulative = -0.000396916
DICPCG:  Solving for p, Initial residual = 0.263431, Final residual = 5.63174e-07, No Iterations 52
time step continuity errors : sum local = 8.22884e-07, global = 2.02208e-08, cumulative = -0.000396896
ExecutionTime = 0.04 s  ClockTime = 1 s

Time = 0.005

Courant Number mean: 1.72064 max: 15.166
smoothSolver:  Solving for Ux, Initial residual = 0.525274, Final residual = 6.22594e-06, No Iterations 18
smoothSolver:  Solving for Uy, Initial residual = 0.403958, Final residual = 7.4654e-06, No Iterations 20
DICPCG:  Solving for p, Initial residual = 0.378473, Final residual = 0.015169, No Iterations 32
time step continuity errors : sum local = 0.0106435, global = -0.000125482, cumulative = -0.000522378
DICPCG:  Solving for p, Initial residual = 0.0442976, Final residual = 9.35038e-07, No Iterations 51
time step continuity errors : sum local = 3.75101e-06, global = -3.30822e-08, cumulative = -0.000522411
ExecutionTime = 0.05 s  ClockTime = 1 s

Time = 0.006

Courant Number mean: 1.95899 max: 13.8193
smoothSolver:  Solving for Ux, Initial residual = 0.355952, Final residual = 7.03925e-06, No Iterations 20
smoothSolver:  Solving for Uy, Initial residual = 0.258712, Final residual = 8.84022e-06, No Iterations 22
DICPCG:  Solving for p, Initial residual = 0.180612, Final residual = 0.00592091, No Iterations 33
time step continuity errors : sum local = 0.00700895, global = -6.95169e-05, cumulative = -0.000591928
DICPCG:  Solving for p, Initial residual = 0.105784, Final residual = 8.28926e-07, No Iterations 53
time step continuity errors : sum local = 1.22964e-06, global = -4.91789e-08, cumulative = -0.000591977
ExecutionTime = 0.05 s  ClockTime = 1 s

Time = 0.007

Courant Number mean: 1.71713 max: 12.0487
smoothSolver:  Solving for Ux, Initial residual = 0.403025, Final residual = 9.46847e-06, No Iterations 19
smoothSolver:  Solving for Uy, Initial residual = 0.166178, Final residual = 7.74304e-06, No Iterations 20
DICPCG:  Solving for p, Initial residual = 0.181715, Final residual = 0.00724965, No Iterations 32
time step continuity errors : sum local = 0.00614578, global = -3.54751e-05, cumulative = -0.000627452
DICPCG:  Solving for p, Initial residual = 0.150385, Final residual = 5.10036e-07, No Iterations 54
time step continuity errors : sum local = 2.78052e-07, global = 5.39813e-09, cumulative = -0.000627447
ExecutionTime = 0.06 s  ClockTime = 1 s

Time = 0.008

Courant Number mean: 1.52274 max: 9.84165
smoothSolver:  Solving for Ux, Initial residual = 0.224907, Final residual = 5.74738e-06, No Iterations 19
smoothSolver:  Solving for Uy, Initial residual = 0.145187, Final residual = 7.40902e-06, No Iterations 20
DICPCG:  Solving for p, Initial residual = 0.154292, Final residual = 0.00767396, No Iterations 31
time step continuity errors : sum local = 0.00485466, global = 0.000139692, cumulative = -0.000487755
DICPCG:  Solving for p, Initial residual = 0.0728424, Final residual = 8.97106e-07, No Iterations 52
time step continuity errors : sum local = 7.84935e-07, global = 3.95166e-09, cumulative = -0.000487751
ExecutionTime = 0.06 s  ClockTime = 1 s

Time = 0.009

Courant Number mean: 1.31106 max: 8.26015
smoothSolver:  Solving for Ux, Initial residual = 0.242949, Final residual = 6.34696e-06, No Iterations 18
smoothSolver:  Solving for Uy, Initial residual = 0.14207, Final residual = 8.20634e-06, No Iterations 18
DICPCG:  Solving for p, Initial residual = 0.205389, Final residual = 0.00787862, No Iterations 32
time step continuity errors : sum local = 0.00312668, global = 2.99054e-05, cumulative = -0.000457845
DICPCG:  Solving for p, Initial residual = 0.0889764, Final residual = 6.3215e-07, No Iterations 53
time step continuity errors : sum local = 2.91548e-07, global = 1.05821e-08, cumulative = -0.000457835
ExecutionTime = 0.06 s  ClockTime = 1 s

Time = 0.01

Courant Number mean: 1.1781 max: 6.98311
smoothSolver:  Solving for Ux, Initial residual = 0.178907, Final residual = 5.65158e-06, No Iterations 16
smoothSolver:  Solving for Uy, Initial residual = 0.124221, Final residual = 9.47426e-06, No Iterations 16
DICPCG:  Solving for p, Initial residual = 0.240404, Final residual = 0.0119844, No Iterations 30
time step continuity errors : sum local = 0.00285914, global = 7.91273e-05, cumulative = -0.000378707
DICPCG:  Solving for p, Initial residual = 0.115096, Final residual = 5.95316e-07, No Iterations 53
time step continuity errors : sum local = 1.15088e-07, global = 2.57101e-09, cumulative = -0.000378705
ExecutionTime = 0.08 s  ClockTime = 1 s

Time = 0.011

Courant Number mean: 1.09901 max: 5.88328
smoothSolver:  Solving for Ux, Initial residual = 0.136843, Final residual = 6.36516e-06, No Iterations 15
smoothSolver:  Solving for Uy, Initial residual = 0.101925, Final residual = 7.41864e-06, No Iterations 15
DICPCG:  Solving for p, Initial residual = 0.31626, Final residual = 0.0143289, No Iterations 29
time step continuity errors : sum local = 0.00210324, global = 0.000148586, cumulative = -0.000230119
DICPCG:  Solving for p, Initial residual = 0.171657, Final residual = 7.03054e-07, No Iterations 53
time step continuity errors : sum local = 5.65667e-08, global = 2.93492e-09, cumulative = -0.000230116
ExecutionTime = 0.09 s  ClockTime = 1 s

Time = 0.012

Courant Number mean: 1.0573 max: 5.013
smoothSolver:  Solving for Ux, Initial residual = 0.114974, Final residual = 5.97478e-06, No Iterations 15
smoothSolver:  Solving for Uy, Initial residual = 0.0824247, Final residual = 7.06481e-06, No Iterations 14
DICPCG:  Solving for p, Initial residual = 0.417258, Final residual = 0.0179484, No Iterations 15
time step continuity errors : sum local = 0.00168745, global = 0.000272848, cumulative = 4.27315e-05
DICPCG:  Solving for p, Initial residual = 0.144513, Final residual = 5.44368e-07, No Iterations 53
time step continuity errors : sum local = 2.86993e-08, global = 4.4764e-10, cumulative = 4.27319e-05
ExecutionTime = 0.09 s  ClockTime = 1 s

Time = 0.013

Courant Number mean: 1.04125 max: 4.31976
smoothSolver:  Solving for Ux, Initial residual = 0.0876536, Final residual = 8.31086e-06, No Iterations 14
smoothSolver:  Solving for Uy, Initial residual = 0.0626695, Final residual = 6.21289e-06, No Iterations 13
DICPCG:  Solving for p, Initial residual = 0.715895, Final residual = 0.0283743, No Iterations 22
time step continuity errors : sum local = 0.0013744, global = -4.09306e-05, cumulative = 1.80127e-06
DICPCG:  Solving for p, Initial residual = 0.0411018, Final residual = 9.98758e-07, No Iterations 50
time step continuity errors : sum local = 1.14441e-07, global = -1.54956e-10, cumulative = 1.80112e-06
ExecutionTime = 0.09 s  ClockTime = 1 s

Time = 0.014

Courant Number mean: 1.04374 max: 3.73898
smoothSolver:  Solving for Ux, Initial residual = 0.0935206, Final residual = 5.66923e-06, No Iterations 15
smoothSolver:  Solving for Uy, Initial residual = 0.0631751, Final residual = 5.61565e-06, No Iterations 14
DICPCG:  Solving for p, Initial residual = 0.640848, Final residual = 0.0304234, No Iterations 8
time step continuity errors : sum local = 0.00160306, global = 7.3347e-05, cumulative = 7.51481e-05
DICPCG:  Solving for p, Initial residual = 0.158887, Final residual = 7.64404e-07, No Iterations 52
time step continuity errors : sum local = 2.00221e-08, global = 3.44254e-10, cumulative = 7.51484e-05
ExecutionTime = 0.1 s  ClockTime = 1 s

Time = 0.015

Courant Number mean: 1.05913 max: 3.31298
smoothSolver:  Solving for Ux, Initial residual = 0.0813244, Final residual = 5.57263e-06, No Iterations 15
smoothSolver:  Solving for Uy, Initial residual = 0.0561919, Final residual = 9.07724e-06, No Iterations 13
DICPCG:  Solving for p, Initial residual = 0.746528, Final residual = 0.0335052, No Iterations 27
time step continuity errors : sum local = 0.00145486, global = -1.28691e-05, cumulative = 6.22794e-05
DICPCG:  Solving for p, Initial residual = 0.0582405, Final residual = 7.45528e-07, No Iterations 51
time step continuity errors : sum local = 4.79874e-08, global = 2.00536e-09, cumulative = 6.22814e-05
ExecutionTime = 0.1 s  ClockTime = 1 s

Time = 0.016

Courant Number mean: 1.08161 max: 2.95177
smoothSolver:  Solving for Ux, Initial residual = 0.0810591, Final residual = 8.98923e-06, No Iterations 14
smoothSolver:  Solving for Uy, Initial residual = 0.053989, Final residual = 6.51532e-06, No Iterations 14
DICPCG:  Solving for p, Initial residual = 0.752443, Final residual = 0.0361393, No Iterations 11
time step continuity errors : sum local = 0.00149486, global = -0.00047937, cumulative = -0.000417089
DICPCG:  Solving for p, Initial residual = 0.299521, Final residual = 9.12415e-07, No Iterations 52
time step continuity errors : sum local = 1.30418e-08, global = -4.06187e-11, cumulative = -0.000417089
ExecutionTime = 0.1 s  ClockTime = 1 s

Time = 0.017

Courant Number mean: 1.11714 max: 2.68135
smoothSolver:  Solving for Ux, Initial residual = 0.0880953, Final residual = 9.42629e-06, No Iterations 14
smoothSolver:  Solving for Uy, Initial residual = 0.0854473, Final residual = 7.47946e-06, No Iterations 15
DICPCG:  Solving for p, Initial residual = 0.536767, Final residual = 0.0186255, No Iterations 23
time step continuity errors : sum local = 0.00109205, global = 0.000170772, cumulative = -0.000246317
DICPCG:  Solving for p, Initial residual = 0.042324, Final residual = 6.61277e-07, No Iterations 50
time step continuity errors : sum local = 6.81828e-08, global = -1.82076e-09, cumulative = -0.000246318
ExecutionTime = 0.11 s  ClockTime = 1 s

Time = 0.018

Courant Number mean: 1.14432 max: 2.48216
smoothSolver:  Solving for Ux, Initial residual = 0.0740215, Final residual = 7.48628e-06, No Iterations 14
smoothSolver:  Solving for Uy, Initial residual = 0.0454102, Final residual = 6.84539e-06, No Iterations 14
DICPCG:  Solving for p, Initial residual = 0.777014, Final residual = 0.023746, No Iterations 28
time step continuity errors : sum local = 0.000927918, global = 2.76909e-06, cumulative = -0.000243549
DICPCG:  Solving for p, Initial residual = 0.0376884, Final residual = 6.18435e-07, No Iterations 50
time step continuity errors : sum local = 5.54832e-08, global = -2.56241e-10, cumulative = -0.00024355
ExecutionTime = 0.11 s  ClockTime = 1 s

Time = 0.019

Courant Number mean: 1.18262 max: 2.32936
smoothSolver:  Solving for Ux, Initial residual = 0.0845961, Final residual = 6.69219e-06, No Iterations 15
smoothSolver:  Solving for Uy, Initial residual = 0.046262, Final residual = 8.61885e-06, No Iterations 14
DICPCG:  Solving for p, Initial residual = 0.752351, Final residual = 0.0363971, No Iterations 15
time step continuity errors : sum local = 0.00136432, global = -0.00028612, cumulative = -0.000529669
DICPCG:  Solving for p, Initial residual = 0.240486, Final residual = 7.07426e-07, No Iterations 53
time step continuity errors : sum local = 9.43918e-09, global = 1.12515e-10, cumulative = -0.000529669
ExecutionTime = 0.12 s  ClockTime = 1 s

Time = 0.02

Courant Number mean: 1.22169 max: 2.22489
smoothSolver:  Solving for Ux, Initial residual = 0.073602, Final residual = 5.60478e-06, No Iterations 15
smoothSolver:  Solving for Uy, Initial residual = 0.062163, Final residual = 6.99778e-06, No Iterations 15
DICPCG:  Solving for p, Initial residual = 0.719088, Final residual = 0.0326128, No Iterations 22
time step continuity errors : sum local = 0.00131143, global = 0.000379142, cumulative = -0.000150527
DICPCG:  Solving for p, Initial residual = 0.169563, Final residual = 6.70358e-07, No Iterations 52
time step continuity errors : sum local = 1.16993e-08, global = -2.09235e-10, cumulative = -0.000150527
ExecutionTime = 0.14 s  ClockTime = 1 s

Time = 0.021

Courant Number mean: 1.26155 max: 2.30824
smoothSolver:  Solving for Ux, Initial residual = 0.0640135, Final residual = 6.66161e-06, No Iterations 14
smoothSolver:  Solving for Uy, Initial residual = 0.0328829, Final residual = 6.14158e-06, No Iterations 14
DICPCG:  Solving for p, Initial residual = 0.767008, Final residual = 0.0206282, No Iterations 28
time step continuity errors : sum local = 0.000753863, global = -2.13755e-07, cumulative = -0.000150741
DICPCG:  Solving for p, Initial residual = 0.0349917, Final residual = 8.21539e-07, No Iterations 49
time step continuity errors : sum local = 8.04279e-08, global = 1.58869e-09, cumulative = -0.000150739
ExecutionTime = 0.14 s  ClockTime = 1 s

Time = 0.022

Courant Number mean: 1.29104 max: 2.37198
smoothSolver:  Solving for Ux, Initial residual = 0.0748186, Final residual = 5.57442e-06, No Iterations 15
smoothSolver:  Solving for Uy, Initial residual = 0.0307272, Final residual = 7.15253e-06, No Iterations 14
DICPCG:  Solving for p, Initial residual = 0.753643, Final residual = 0.0235746, No Iterations 28
time step continuity errors : sum local = 0.000851032, global = -1.3468e-05, cumulative = -0.000164207
DICPCG:  Solving for p, Initial residual = 0.0486377, Final residual = 6.088e-07, No Iterations 50
time step continuity errors : sum local = 3.35954e-08, global = 8.11017e-10, cumulative = -0.000164206
ExecutionTime = 0.15 s  ClockTime = 1 s

Time = 0.023

Courant Number mean: 1.33135 max: 2.45394
smoothSolver:  Solving for Ux, Initial residual = 0.0677745, Final residual = 6.97274e-06, No Iterations 14
smoothSolver:  Solving for Uy, Initial residual = 0.035932, Final residual = 9.604e-06, No Iterations 14
DICPCG:  Solving for p, Initial residual = 0.740591, Final residual = 0.0352759, No Iterations 19
time step continuity errors : sum local = 0.00126108, global = -0.000276577, cumulative = -0.000440783
DICPCG:  Solving for p, Initial residual = 0.150688, Final residual = 9.60656e-07, No Iterations 50
time step continuity errors : sum local = 1.78439e-08, global = 1.60146e-10, cumulative = -0.000440783
ExecutionTime = 0.16 s  ClockTime = 1 s

Time = 0.024

Courant Number mean: 1.37189 max: 2.5314
smoothSolver:  Solving for Ux, Initial residual = 0.0649046, Final residual = 5.23346e-06, No Iterations 14
smoothSolver:  Solving for Uy, Initial residual = 0.0648047, Final residual = 9.64097e-06, No Iterations 15
DICPCG:  Solving for p, Initial residual = 0.587674, Final residual = 0.0287319, No Iterations 19
time step continuity errors : sum local = 0.00128343, global = 0.000380047, cumulative = -6.0736e-05
DICPCG:  Solving for p, Initial residual = 0.159009, Final residual = 5.92718e-07, No Iterations 53
time step continuity errors : sum local = 1.24704e-08, global = -1.21479e-10, cumulative = -6.07362e-05
ExecutionTime = 0.16 s  ClockTime = 1 s

Time = 0.025

Courant Number mean: 1.42342 max: 2.63403
smoothSolver:  Solving for Ux, Initial residual = 0.0664713, Final residual = 5.36483e-06, No Iterations 14
smoothSolver:  Solving for Uy, Initial residual = 0.0245636, Final residual = 5.80896e-06, No Iterations 14
DICPCG:  Solving for p, Initial residual = 0.728175, Final residual = 0.0189345, No Iterations 28
time step continuity errors : sum local = 0.000669738, global = 9.83542e-07, cumulative = -5.97526e-05
DICPCG:  Solving for p, Initial residual = 0.024735, Final residual = 7.10467e-07, No Iterations 47
time step continuity errors : sum local = 9.28895e-08, global = -2.78901e-09, cumulative = -5.97554e-05
ExecutionTime = 0.17 s  ClockTime = 1 s

Time = 0.026

Courant Number mean: 1.46441 max: 2.69773
smoothSolver:  Solving for Ux, Initial residual = 0.0794923, Final residual = 5.96791e-06, No Iterations 16
smoothSolver:  Solving for Uy, Initial residual = 0.0347423, Final residual = 6.26732e-06, No Iterations 15
DICPCG:  Solving for p, Initial residual = 0.721572, Final residual = 0.0336274, No Iterations 16
time step continuity errors : sum local = 0.00118598, global = -0.000215843, cumulative = -0.000275599
DICPCG:  Solving for p, Initial residual = 0.160479, Final residual = 9.51886e-07, No Iterations 52
time step continuity errors : sum local = 1.69716e-08, global = 3.63624e-10, cumulative = -0.000275598
ExecutionTime = 0.18 s  ClockTime = 1 s

Time = 0.027

Courant Number mean: 1.5055 max: 2.77136
smoothSolver:  Solving for Ux, Initial residual = 0.0583398, Final residual = 6.17602e-06, No Iterations 15
smoothSolver:  Solving for Uy, Initial residual = 0.0440705, Final residual = 7.85764e-06, No Iterations 15
DICPCG:  Solving for p, Initial residual = 0.657246, Final residual = 0.0315899, No Iterations 12
time step continuity errors : sum local = 0.0012128, global = 0.000135904, cumulative = -0.000139694
DICPCG:  Solving for p, Initial residual = 0.145756, Final residual = 5.45792e-07, No Iterations 52
time step continuity errors : sum local = 1.11336e-08, global = 2.175e-10, cumulative = -0.000139694
ExecutionTime = 0.18 s  ClockTime = 1 s

Time = 0.028

Courant Number mean: 1.54702 max: 2.85334
smoothSolver:  Solving for Ux, Initial residual = 0.0595443, Final residual = 8.39725e-06, No Iterations 14
smoothSolver:  Solving for Uy, Initial residual = 0.0144727, Final residual = 8.06638e-06, No Iterations 12
DICPCG:  Solving for p, Initial residual = 0.722149, Final residual = 0.0353729, No Iterations 22
time step continuity errors : sum local = 0.00125131, global = -6.53441e-05, cumulative = -0.000205038
DICPCG:  Solving for p, Initial residual = 0.0286931, Final residual = 9.61407e-07, No Iterations 48
time step continuity errors : sum local = 1.27476e-07, global = -7.59829e-10, cumulative = -0.000205039
ExecutionTime = 0.19 s  ClockTime = 1 s

Time = 0.029

Courant Number mean: 1.59876 max: 2.93435
smoothSolver:  Solving for Ux, Initial residual = 0.0653498, Final residual = 9.57804e-06, No Iterations 14
smoothSolver:  Solving for Uy, Initial residual = 0.03784, Final residual = 8.04357e-06, No Iterations 15
DICPCG:  Solving for p, Initial residual = 0.650792, Final residual = 0.0324544, No Iterations 13
time step continuity errors : sum local = 0.00120777, global = -5.94769e-06, cumulative = -0.000210986
DICPCG:  Solving for p, Initial residual = 0.126535, Final residual = 6.37336e-07, No Iterations 51
time step continuity errors : sum local = 1.40015e-08, global = 1.47583e-10, cumulative = -0.000210986
ExecutionTime = 0.19 s  ClockTime = 1 s

Time = 0.03

Courant Number mean: 1.64027 max: 3.01305
smoothSolver:  Solving for Ux, Initial residual = 0.0537938, Final residual = 9.31088e-06, No Iterations 13
smoothSolver:  Solving for Uy, Initial residual = 0.0197194, Final residual = 6.73092e-06, No Iterations 14
DICPCG:  Solving for p, Initial residual = 0.702035, Final residual = 0.019147, No Iterations 23
time step continuity errors : sum local = 0.00067732, global = 5.56773e-05, cumulative = -0.000155309
DICPCG:  Solving for p, Initial residual = 0.0330933, Final residual = 8.99503e-07, No Iterations 49
time step continuity errors : sum local = 6.3969e-08, global = -2.06919e-10, cumulative = -0.000155309
ExecutionTime = 0.21 s  ClockTime = 2 s

Time = 0.031

Courant Number mean: 1.68187 max: 3.08725
smoothSolver:  Solving for Ux, Initial residual = 0.0522789, Final residual = 7.77922e-06, No Iterations 14
smoothSolver:  Solving for Uy, Initial residual = 0.0309099, Final residual = 8.52646e-06, No Iterations 15
DICPCG:  Solving for p, Initial residual = 0.670429, Final residual = 0.0222534, No Iterations 28
time step continuity errors : sum local = 0.000770263, global = 5.67545e-08, cumulative = -0.000155252
DICPCG:  Solving for p, Initial residual = 0.0334309, Final residual = 7.92421e-07, No Iterations 50
time step continuity errors : sum local = 5.27122e-08, global = 8.15289e-10, cumulative = -0.000155252
ExecutionTime = 0.22 s  ClockTime = 2 s

Time = 0.032

Courant Number mean: 1.7338 max: 3.1747
smoothSolver:  Solving for Ux, Initial residual = 0.0681915, Final residual = 9.9839e-06, No Iterations 16
smoothSolver:  Solving for Uy, Initial residual = 0.0314112, Final residual = 8.4169e-06, No Iterations 15
DICPCG:  Solving for p, Initial residual = 0.619092, Final residual = 0.0296981, No Iterations 15
time step continuity errors : sum local = 0.00106287, global = -0.000134307, cumulative = -0.000289559
DICPCG:  Solving for p, Initial residual = 0.10126, Final residual = 8.24467e-07, No Iterations 51
time step continuity errors : sum local = 2.05391e-08, global = -1.31077e-09, cumulative = -0.00028956
ExecutionTime = 0.22 s  ClockTime = 2 s

Time = 0.033

Courant Number mean: 1.77544 max: 3.25174
smoothSolver:  Solving for Ux, Initial residual = 0.0609523, Final residual = 8.38405e-06, No Iterations 16
smoothSolver:  Solving for Uy, Initial residual = 0.0304081, Final residual = 7.53972e-06, No Iterations 15
DICPCG:  Solving for p, Initial residual = 0.613061, Final residual = 0.0304795, No Iterations 10
time step continuity errors : sum local = 0.00116469, global = -0.000299691, cumulative = -0.000589251
DICPCG:  Solving for p, Initial residual = 0.111488, Final residual = 7.36351e-07, No Iterations 50
time step continuity errors : sum local = 1.78967e-08, global = -3.25774e-10, cumulative = -0.000589252
ExecutionTime = 0.23 s  ClockTime = 2 s

Time = 0.034

Courant Number mean: 1.82752 max: 3.34358
smoothSolver:  Solving for Ux, Initial residual = 0.0580398, Final residual = 6.76722e-06, No Iterations 15
smoothSolver:  Solving for Uy, Initial residual = 0.0524114, Final residual = 7.95719e-06, No Iterations 16
DICPCG:  Solving for p, Initial residual = 0.404464, Final residual = 0.0120151, No Iterations 28
time step continuity errors : sum local = 0.000678896, global = 3.02363e-06, cumulative = -0.000586228
DICPCG:  Solving for p, Initial residual = 0.0634702, Final residual = 6.98006e-07, No Iterations 50
time step continuity errors : sum local = 3.38685e-08, global = -3.79756e-10, cumulative = -0.000586229
ExecutionTime = 0.23 s  ClockTime = 2 s

Time = 0.035

Courant Number mean: 1.87978 max: 3.44658
smoothSolver:  Solving for Ux, Initial residual = 0.0611209, Final residual = 7.45438e-06, No Iterations 14
smoothSolver:  Solving for Uy, Initial residual = 0.024007, Final residual = 8.11287e-06, No Iterations 15
DICPCG:  Solving for p, Initial residual = 0.642307, Final residual = 0.0229354, No Iterations 28
time step continuity errors : sum local = 0.000790166, global = -2.03755e-05, cumulative = -0.000606604
DICPCG:  Solving for p, Initial residual = 0.0457542, Final residual = 5.40584e-07, No Iterations 52
time step continuity errors : sum local = 3.02227e-08, global = 3.16602e-10, cumulative = -0.000606604
ExecutionTime = 0.24 s  ClockTime = 2 s

Time = 0.036

Courant Number mean: 1.92155 max: 3.52167
smoothSolver:  Solving for Ux, Initial residual = 0.0597946, Final residual = 8.34826e-06, No Iterations 15
smoothSolver:  Solving for Uy, Initial residual = 0.0235364, Final residual = 7.96007e-06, No Iterations 15
DICPCG:  Solving for p, Initial residual = 0.609799, Final residual = 0.0243364, No Iterations 28
time step continuity errors : sum local = 0.000862992, global = -1.88213e-05, cumulative = -0.000625425
DICPCG:  Solving for p, Initial residual = 0.0391577, Final residual = 8.38051e-07, No Iterations 50
time step continuity errors : sum local = 6.2007e-08, global = -2.06684e-09, cumulative = -0.000625427
ExecutionTime = 0.24 s  ClockTime = 2 s

Time = 0.037

Courant Number mean: 1.97365 max: 3.61043
smoothSolver:  Solving for Ux, Initial residual = 0.061169, Final residual = 6.6311e-06, No Iterations 15
smoothSolver:  Solving for Uy, Initial residual = 0.0286758, Final residual = 6.21858e-06, No Iterations 16
DICPCG:  Solving for p, Initial residual = 0.533793, Final residual = 0.0243122, No Iterations 19
time step continuity errors : sum local = 0.000983797, global = -0.000214275, cumulative = -0.000839702
DICPCG:  Solving for p, Initial residual = 0.0750201, Final residual = 6.35107e-07, No Iterations 52
time step continuity errors : sum local = 2.34277e-08, global = 2.41943e-10, cumulative = -0.000839702
ExecutionTime = 0.24 s  ClockTime = 2 s

Time = 0.038

Courant Number mean: 2.02572 max: 3.70712
smoothSolver:  Solving for Ux, Initial residual = 0.0529264, Final residual = 9.95499e-06, No Iterations 14
smoothSolver:  Solving for Uy, Initial residual = 0.0448435, Final residual = 9.4158e-06, No Iterations 16
DICPCG:  Solving for p, Initial residual = 0.369534, Final residual = 0.0137966, No Iterations 28
time step continuity errors : sum local = 0.000786699, global = 7.35511e-06, cumulative = -0.000832347
DICPCG:  Solving for p, Initial residual = 0.0528482, Final residual = 9.40549e-07, No Iterations 50
time step continuity errors : sum local = 5.53085e-08, global = 2.78143e-09, cumulative = -0.000832344
ExecutionTime = 0.25 s  ClockTime = 2 s

Time = 0.039

Courant Number mean: 2.06771 max: 3.80031
smoothSolver:  Solving for Ux, Initial residual = 0.0695325, Final residual = 7.02906e-06, No Iterations 16
smoothSolver:  Solving for Uy, Initial residual = 0.016248, Final residual = 6.68399e-06, No Iterations 15
DICPCG:  Solving for p, Initial residual = 0.6097, Final residual = 0.0234071, No Iterations 28
time step continuity errors : sum local = 0.00081594, global = -2.20303e-05, cumulative = -0.000854374
DICPCG:  Solving for p, Initial residual = 0.0322416, Final residual = 9.49024e-07, No Iterations 50
time step continuity errors : sum local = 9.48294e-08, global = -1.8915e-09, cumulative = -0.000854376
ExecutionTime = 0.26 s  ClockTime = 2 s

Time = 0.04

Courant Number mean: 2.11984 max: 3.89367
smoothSolver:  Solving for Ux, Initial residual = 0.0647402, Final residual = 6.56855e-06, No Iterations 16
smoothSolver:  Solving for Uy, Initial residual = 0.0283573, Final residual = 7.23753e-06, No Iterations 16
DICPCG:  Solving for p, Initial residual = 0.456873, Final residual = 0.0219282, No Iterations 16
time step continuity errors : sum local = 0.000991668, global = -0.000180393, cumulative = -0.00103477
DICPCG:  Solving for p, Initial residual = 0.0780623, Final residual = 6.6894e-07, No Iterations 50
time step continuity errors : sum local = 2.53303e-08, global = 3.01113e-10, cumulative = -0.00103477
ExecutionTime = 0.27 s  ClockTime = 2 s

Time = 0.041

Courant Number mean: 2.17194 max: 3.98954
smoothSolver:  Solving for Ux, Initial residual = 0.0489682, Final residual = 9.67806e-06, No Iterations 15
smoothSolver:  Solving for Uy, Initial residual = 0.0351049, Final residual = 8.21873e-06, No Iterations 16
DICPCG:  Solving for p, Initial residual = 0.355808, Final residual = 0.0168556, No Iterations 22
time step continuity errors : sum local = 0.000936029, global = 0.000270706, cumulative = -0.000764063
DICPCG:  Solving for p, Initial residual = 0.0796244, Final residual = 5.84448e-07, No Iterations 52
time step continuity errors : sum local = 1.89599e-08, global = -1.0989e-10, cumulative = -0.000764063
ExecutionTime = 0.27 s  ClockTime = 2 s

Time = 0.042

Courant Number mean: 2.2244 max: 4.09467
smoothSolver:  Solving for Ux, Initial residual = 0.045077, Final residual = 6.62627e-06, No Iterations 16
smoothSolver:  Solving for Uy, Initial residual = 0.0182475, Final residual = 6.40411e-06, No Iterations 16
DICPCG:  Solving for p, Initial residual = 0.570127, Final residual = 0.0203161, No Iterations 28
time step continuity errors : sum local = 0.000728367, global = 1.25337e-06, cumulative = -0.000762809
DICPCG:  Solving for p, Initial residual = 0.0255418, Final residual = 7.77475e-07, No Iterations 47
time step continuity errors : sum local = 9.46601e-08, global = 1.54924e-09, cumulative = -0.000762808
ExecutionTime = 0.27 s  ClockTime = 2 s

Time = 0.043

Courant Number mean: 2.27641 max: 4.18045
smoothSolver:  Solving for Ux, Initial residual = 0.0609137, Final residual = 8.30976e-06, No Iterations 17
smoothSolver:  Solving for Uy, Initial residual = 0.0255816, Final residual = 7.20631e-06, No Iterations 16
DICPCG:  Solving for p, Initial residual = 0.397921, Final residual = 0.0192234, No Iterations 11
time step continuity errors : sum local = 0.000940133, global = -0.000243729, cumulative = -0.00100654
DICPCG:  Solving for p, Initial residual = 0.0695315, Final residual = 8.14948e-07, No Iterations 51
time step continuity errors : sum local = 3.10593e-08, global = -9.01793e-10, cumulative = -0.00100654
ExecutionTime = 0.28 s  ClockTime = 2 s

Time = 0.044

Courant Number mean: 2.32861 max: 4.27915
smoothSolver:  Solving for Ux, Initial residual = 0.0490608, Final residual = 6.18949e-06, No Iterations 15
smoothSolver:  Solving for Uy, Initial residual = 0.032286, Final residual = 8.13996e-06, No Iterations 16
DICPCG:  Solving for p, Initial residual = 0.32743, Final residual = 0.0147623, No Iterations 11
time step continuity errors : sum local = 0.000862312, global = 0.000290581, cumulative = -0.000715957
DICPCG:  Solving for p, Initial residual = 0.0572779, Final residual = 8.23736e-07, No Iterations 50
time step continuity errors : sum local = 3.53348e-08, global = -1.46556e-09, cumulative = -0.000715958
ExecutionTime = 0.28 s  ClockTime = 2 s

Time = 0.045

Courant Number mean: 2.38112 max: 4.38821
smoothSolver:  Solving for Ux, Initial residual = 0.0380879, Final residual = 7.90316e-06, No Iterations 14
smoothSolver:  Solving for Uy, Initial residual = 0.0136332, Final residual = 6.78805e-06, No Iterations 15
DICPCG:  Solving for p, Initial residual = 0.522846, Final residual = 0.0169506, No Iterations 28
time step continuity errors : sum local = 0.000592361, global = -1.43481e-06, cumulative = -0.000717393
DICPCG:  Solving for p, Initial residual = 0.0192349, Final residual = 7.09585e-07, No Iterations 49
time step continuity errors : sum local = 1.08551e-07, global = -1.03205e-09, cumulative = -0.000717394
ExecutionTime = 0.28 s  ClockTime = 2 s

Time = 0.046

Courant Number mean: 2.4331 max: 4.47017
smoothSolver:  Solving for Ux, Initial residual = 0.0507056, Final residual = 7.30366e-06, No Iterations 17
smoothSolver:  Solving for Uy, Initial residual = 0.0260137, Final residual = 8.76762e-06, No Iterations 16
DICPCG:  Solving for p, Initial residual = 0.354407, Final residual = 0.0161316, No Iterations 13
time step continuity errors : sum local = 0.000858822, global = -0.000111511, cumulative = -0.000828905
DICPCG:  Solving for p, Initial residual = 0.0530057, Final residual = 7.78886e-07, No Iterations 51
time step continuity errors : sum local = 3.3125e-08, global = -2.34814e-09, cumulative = -0.000828908
ExecutionTime = 0.29 s  ClockTime = 2 s

Time = 0.047

Courant Number mean: 2.48532 max: 4.57122
smoothSolver:  Solving for Ux, Initial residual = 0.0409972, Final residual = 9.24401e-06, No Iterations 15
smoothSolver:  Solving for Uy, Initial residual = 0.0223461, Final residual = 6.81686e-06, No Iterations 16
DICPCG:  Solving for p, Initial residual = 0.339431, Final residual = 0.0150056, No Iterations 11
time step continuity errors : sum local = 0.000797596, global = -0.00018578, cumulative = -0.00101469
DICPCG:  Solving for p, Initial residual = 0.0567938, Final residual = 6.39898e-07, No Iterations 52
time step continuity errors : sum local = 2.69354e-08, global = 5.06647e-10, cumulative = -0.00101469
ExecutionTime = 0.3 s  ClockTime = 2 s

Time = 0.048

Courant Number mean: 2.53761 max: 4.67229
smoothSolver:  Solving for Ux, Initial residual = 0.0368623, Final residual = 8.41096e-06, No Iterations 15
smoothSolver:  Solving for Uy, Initial residual = 0.0348295, Final residual = 7.77038e-06, No Iterations 17
DICPCG:  Solving for p, Initial residual = 0.276262, Final residual = 0.00909276, No Iterations 28
time step continuity errors : sum local = 0.000584478, global = 5.63052e-07, cumulative = -0.00101412
DICPCG:  Solving for p, Initial residual = 0.0717354, Final residual = 9.67557e-07, No Iterations 50
time step continuity errors : sum local = 3.2042e-08, global = 4.42614e-10, cumulative = -0.00101412
ExecutionTime = 0.3 s  ClockTime = 2 s

Time = 0.049

Courant Number mean: 2.58997 max: 4.77909
smoothSolver:  Solving for Ux, Initial residual = 0.0390985, Final residual = 7.0938e-06, No Iterations 15
smoothSolver:  Solving for Uy, Initial residual = 0.0171771, Final residual = 7.40944e-06, No Iterations 16
DICPCG:  Solving for p, Initial residual = 0.34592, Final residual = 0.0136878, No Iterations 28
time step continuity errors : sum local = 0.000666792, global = -1.63855e-05, cumulative = -0.00103051
DICPCG:  Solving for p, Initial residual = 0.0261816, Final residual = 9.97224e-07, No Iterations 48
time step continuity errors : sum local = 8.76259e-08, global = 3.13981e-09, cumulative = -0.00103051
ExecutionTime = 0.31 s  ClockTime = 2 s

Time = 0.05

Courant Number mean: 2.64217 max: 4.87359
smoothSolver:  Solving for Ux, Initial residual = 0.0434266, Final residual = 6.54241e-06, No Iterations 16
smoothSolver:  Solving for Uy, Initial residual = 0.0214709, Final residual = 9.31729e-06, No Iterations 16
DICPCG:  Solving for p, Initial residual = 0.319611, Final residual = 0.0157062, No Iterations 18
time step continuity errors : sum local = 0.000851516, global = -0.000165628, cumulative = -0.00119613
DICPCG:  Solving for p, Initial residual = 0.0481121, Final residual = 8.53853e-07, No Iterations 49
time step continuity errors : sum local = 4.23245e-08, global = 2.13734e-09, cumulative = -0.00119613
ExecutionTime = 0.32 s  ClockTime = 2 s

Time = 0.051

Courant Number mean: 2.69433 max: 4.96901
smoothSolver:  Solving for Ux, Initial residual = 0.0406521, Final residual = 7.0047e-06, No Iterations 14
smoothSolver:  Solving for Uy, Initial residual = 0.0301595, Final residual = 7.67287e-06, No Iterations 17
DICPCG:  Solving for p, Initial residual = 0.252918, Final residual = 0.00990349, No Iterations 28
time step continuity errors : sum local = 0.000649706, global = 8.30307e-06, cumulative = -0.00118783
DICPCG:  Solving for p, Initial residual = 0.100126, Final residual = 8.5562e-07, No Iterations 51
time step continuity errors : sum local = 2.01996e-08, global = 5.6993e-10, cumulative = -0.00118783
ExecutionTime = 0.32 s  ClockTime = 2 s

Time = 0.052

Courant Number mean: 2.74676 max: 5.07367
smoothSolver:  Solving for Ux, Initial residual = 0.0455064, Final residual = 6.6846e-06, No Iterations 17
smoothSolver:  Solving for Uy, Initial residual = 0.0166081, Final residual = 8.37941e-06, No Iterations 16
DICPCG:  Solving for p, Initial residual = 0.322472, Final residual = 0.0134218, No Iterations 28
time step continuity errors : sum local = 0.000695976, global = -1.45525e-05, cumulative = -0.00120238
DICPCG:  Solving for p, Initial residual = 0.0285786, Final residual = 8.54141e-07, No Iterations 49
time step continuity errors : sum local = 7.56164e-08, global = 2.09109e-09, cumulative = -0.00120238
ExecutionTime = 0.32 s  ClockTime = 2 s

Time = 0.053

Courant Number mean: 2.79892 max: 5.16718
smoothSolver:  Solving for Ux, Initial residual = 0.0502857, Final residual = 8.58476e-06, No Iterations 18
smoothSolver:  Solving for Uy, Initial residual = 0.0200633, Final residual = 9.89589e-06, No Iterations 16
DICPCG:  Solving for p, Initial residual = 0.274279, Final residual = 0.0117326, No Iterations 19
time step continuity errors : sum local = 0.000679851, global = -0.00013783, cumulative = -0.00134021
DICPCG:  Solving for p, Initial residual = 0.0477932, Final residual = 9.95245e-07, No Iterations 50
time step continuity errors : sum local = 5.42416e-08, global = 7.92211e-10, cumulative = -0.00134021
ExecutionTime = 0.33 s  ClockTime = 2 s

Time = 0.054

Courant Number mean: 2.85113 max: 5.26125
smoothSolver:  Solving for Ux, Initial residual = 0.0422562, Final residual = 7.52271e-06, No Iterations 17
smoothSolver:  Solving for Uy, Initial residual = 0.0276668, Final residual = 8.37801e-06, No Iterations 17
DICPCG:  Solving for p, Initial residual = 0.247927, Final residual = 0.0109734, No Iterations 28
time step continuity errors : sum local = 0.000734732, global = 2.04493e-05, cumulative = -0.00131976
DICPCG:  Solving for p, Initial residual = 0.0957594, Final residual = 9.29632e-07, No Iterations 51
time step continuity errors : sum local = 2.62754e-08, global = 1.00677e-09, cumulative = -0.00131976
ExecutionTime = 0.33 s  ClockTime = 2 s

Time = 0.055

Courant Number mean: 2.90353 max: 5.36393
smoothSolver:  Solving for Ux, Initial residual = 0.0518208, Final residual = 7.25362e-06, No Iterations 18
smoothSolver:  Solving for Uy, Initial residual = 0.0152812, Final residual = 8.72718e-06, No Iterations 16
DICPCG:  Solving for p, Initial residual = 0.291714, Final residual = 0.0122142, No Iterations 28
time step continuity errors : sum local = 0.000674025, global = -9.63133e-06, cumulative = -0.00132939
DICPCG:  Solving for p, Initial residual = 0.0291859, Final residual = 8.86302e-07, No Iterations 50
time step continuity errors : sum local = 8.12488e-08, global = -1.80888e-09, cumulative = -0.00132939
ExecutionTime = 0.34 s  ClockTime = 2 s

Time = 0.056

Courant Number mean: 2.95568 max: 5.45657
smoothSolver:  Solving for Ux, Initial residual = 0.0544639, Final residual = 9.74154e-06, No Iterations 18
smoothSolver:  Solving for Uy, Initial residual = 0.0189347, Final residual = 6.71242e-06, No Iterations 17
DICPCG:  Solving for p, Initial residual = 0.245416, Final residual = 0.0105186, No Iterations 19
time step continuity errors : sum local = 0.000643385, global = -0.000131716, cumulative = -0.00146111
DICPCG:  Solving for p, Initial residual = 0.0449398, Final residual = 5.93817e-07, No Iterations 51
time step continuity errors : sum local = 3.43766e-08, global = 3.41262e-10, cumulative = -0.00146111
ExecutionTime = 0.34 s  ClockTime = 2 s

Time = 0.057

Courant Number mean: 3.00789 max: 5.54966
smoothSolver:  Solving for Ux, Initial residual = 0.0413029, Final residual = 6.74809e-06, No Iterations 18
smoothSolver:  Solving for Uy, Initial residual = 0.0256325, Final residual = 8.84539e-06, No Iterations 17
DICPCG:  Solving for p, Initial residual = 0.225434, Final residual = 0.0103542, No Iterations 28
time step continuity errors : sum local = 0.000719312, global = 2.52613e-05, cumulative = -0.00143584
DICPCG:  Solving for p, Initial residual = 0.0802823, Final residual = 6.54347e-07, No Iterations 50
time step continuity errors : sum local = 2.18795e-08, global = 4.92106e-10, cumulative = -0.00143584
ExecutionTime = 0.34 s  ClockTime = 2 s

Time = 0.058

Courant Number mean: 3.06028 max: 5.65239
smoothSolver:  Solving for Ux, Initial residual = 0.051233, Final residual = 7.70097e-06, No Iterations 18
smoothSolver:  Solving for Uy, Initial residual = 0.0144745, Final residual = 9.39836e-06, No Iterations 16
DICPCG:  Solving for p, Initial residual = 0.260452, Final residual = 0.0117033, No Iterations 28
time step continuity errors : sum local = 0.000684909, global = -9.5481e-06, cumulative = -0.00144539
DICPCG:  Solving for p, Initial residual = 0.0289477, Final residual = 9.3289e-07, No Iterations 50
time step continuity errors : sum local = 8.74416e-08, global = -1.94009e-09, cumulative = -0.00144539
ExecutionTime = 0.35 s  ClockTime = 2 s

Time = 0.059

Courant Number mean: 3.11242 max: 5.74447
smoothSolver:  Solving for Ux, Initial residual = 0.0538713, Final residual = 8.25643e-06, No Iterations 19
smoothSolver:  Solving for Uy, Initial residual = 0.0179981, Final residual = 7.26728e-06, No Iterations 17
DICPCG:  Solving for p, Initial residual = 0.242822, Final residual = 0.0103437, No Iterations 19
time step continuity errors : sum local = 0.000653984, global = -0.000135201, cumulative = -0.00158059
DICPCG:  Solving for p, Initial residual = 0.0452633, Final residual = 5.78713e-07, No Iterations 51
time step continuity errors : sum local = 3.46453e-08, global = 3.90057e-10, cumulative = -0.00158059
ExecutionTime = 0.35 s  ClockTime = 2 s

Time = 0.06

Courant Number mean: 3.16463 max: 5.83741
smoothSolver:  Solving for Ux, Initial residual = 0.0412842, Final residual = 7.24402e-06, No Iterations 18
smoothSolver:  Solving for Uy, Initial residual = 0.0242875, Final residual = 9.47946e-06, No Iterations 17
DICPCG:  Solving for p, Initial residual = 0.195981, Final residual = 0.00962298, No Iterations 28
time step continuity errors : sum local = 0.000706456, global = 2.16302e-05, cumulative = -0.00155896
DICPCG:  Solving for p, Initial residual = 0.076998, Final residual = 8.03075e-07, No Iterations 50
time step continuity errors : sum local = 3.01827e-08, global = -1.13937e-09, cumulative = -0.00155897
ExecutionTime = 0.37 s  ClockTime = 2 s

Time = 0.061

Courant Number mean: 3.20667 max: 5.92713
smoothSolver:  Solving for Ux, Initial residual = 0.0513728, Final residual = 6.46389e-06, No Iterations 18
smoothSolver:  Solving for Uy, Initial residual = 0.0102465, Final residual = 7.30626e-06, No Iterations 16
DICPCG:  Solving for p, Initial residual = 0.267394, Final residual = 0.0110037, No Iterations 28
time step continuity errors : sum local = 0.000630403, global = -9.07921e-06, cumulative = -0.00156804
DICPCG:  Solving for p, Initial residual = 0.0250072, Final residual = 7.633e-07, No Iterations 50
time step continuity errors : sum local = 8.88586e-08, global = -1.82605e-09, cumulative = -0.00156805
ExecutionTime = 0.37 s  ClockTime = 2 s

Time = 0.062

Courant Number mean: 3.25876 max: 6.01473
smoothSolver:  Solving for Ux, Initial residual = 0.0506441, Final residual = 7.81523e-06, No Iterations 18
smoothSolver:  Solving for Uy, Initial residual = 0.0182908, Final residual = 8.41668e-06, No Iterations 17
DICPCG:  Solving for p, Initial residual = 0.205896, Final residual = 0.00912114, No Iterations 16
time step continuity errors : sum local = 0.000619769, global = -8.54153e-05, cumulative = -0.00165346
DICPCG:  Solving for p, Initial residual = 0.0423124, Final residual = 8.89333e-07, No Iterations 50
time step continuity errors : sum local = 5.55502e-08, global = -1.21896e-09, cumulative = -0.00165346
ExecutionTime = 0.38 s  ClockTime = 2 s

Time = 0.063

Courant Number mean: 3.31095 max: 6.10695
smoothSolver:  Solving for Ux, Initial residual = 0.042838, Final residual = 6.70749e-06, No Iterations 19
smoothSolver:  Solving for Uy, Initial residual = 0.0179432, Final residual = 7.31783e-06, No Iterations 17
DICPCG:  Solving for p, Initial residual = 0.199348, Final residual = 0.00796779, No Iterations 10
time step continuity errors : sum local = 0.000559896, global = -4.54402e-05, cumulative = -0.0016989
DICPCG:  Solving for p, Initial residual = 0.038667, Final residual = 7.25618e-07, No Iterations 50
time step continuity errors : sum local = 4.47753e-08, global = -1.66732e-09, cumulative = -0.0016989
ExecutionTime = 0.38 s  ClockTime = 2 s

Time = 0.064

Courant Number mean: 3.3633 max: 6.2036
smoothSolver:  Solving for Ux, Initial residual = 0.0380671, Final residual = 8.26957e-06, No Iterations 16
smoothSolver:  Solving for Uy, Initial residual = 0.0174579, Final residual = 8.41741e-06, No Iterations 17
DICPCG:  Solving for p, Initial residual = 0.194398, Final residual = 0.00942969, No Iterations 13
time step continuity errors : sum local = 0.000658664, global = -0.000106136, cumulative = -0.00180504
DICPCG:  Solving for p, Initial residual = 0.0297032, Final residual = 8.60778e-07, No Iterations 50
time step continuity errors : sum local = 5.38838e-08, global = 9.92341e-11, cumulative = -0.00180504
ExecutionTime = 0.38 s  ClockTime = 2 s

Time = 0.065

Courant Number mean: 3.41548 max: 6.29988
smoothSolver:  Solving for Ux, Initial residual = 0.0277101, Final residual = 6.98363e-06, No Iterations 15
smoothSolver:  Solving for Uy, Initial residual = 0.0191399, Final residual = 7.8723e-06, No Iterations 17
DICPCG:  Solving for p, Initial residual = 0.178968, Final residual = 0.00751786, No Iterations 11
time step continuity errors : sum local = 0.000557501, global = 0.000140184, cumulative = -0.00166486
DICPCG:  Solving for p, Initial residual = 0.0285902, Final residual = 9.23288e-07, No Iterations 49
time step continuity errors : sum local = 5.9395e-08, global = 1.44375e-09, cumulative = -0.00166486
ExecutionTime = 0.39 s  ClockTime = 2 s

Time = 0.066

Courant Number mean: 3.46789 max: 6.39944
smoothSolver:  Solving for Ux, Initial residual = 0.0255967, Final residual = 9.15984e-06, No Iterations 15
smoothSolver:  Solving for Uy, Initial residual = 0.010423, Final residual = 7.42436e-06, No Iterations 17
DICPCG:  Solving for p, Initial residual = 0.206033, Final residual = 0.00746934, No Iterations 28
time step continuity errors : sum local = 0.000450416, global = -3.16625e-06, cumulative = -0.00166802
DICPCG:  Solving for p, Initial residual = 0.0154919, Final residual = 5.76492e-07, No Iterations 47
time step continuity errors : sum local = 7.4466e-08, global = -2.12228e-10, cumulative = -0.00166802
ExecutionTime = 0.39 s  ClockTime = 2 s

Time = 0.067

Courant Number mean: 3.51984 max: 6.48068
smoothSolver:  Solving for Ux, Initial residual = 0.0271693, Final residual = 6.66053e-06, No Iterations 17
smoothSolver:  Solving for Uy, Initial residual = 0.0166154, Final residual = 8.66401e-06, No Iterations 17
DICPCG:  Solving for p, Initial residual = 0.171599, Final residual = 0.00728574, No Iterations 11
time step continuity errors : sum local = 0.000530082, global = -0.000106243, cumulative = -0.00177426
DICPCG:  Solving for p, Initial residual = 0.0268345, Final residual = 6.02437e-07, No Iterations 50
time step continuity errors : sum local = 3.94901e-08, global = 1.58977e-09, cumulative = -0.00177426
ExecutionTime = 0.39 s  ClockTime = 2 s

Time = 0.068

Courant Number mean: 3.57207 max: 6.57608
smoothSolver:  Solving for Ux, Initial residual = 0.0259996, Final residual = 9.68475e-06, No Iterations 15
smoothSolver:  Solving for Uy, Initial residual = 0.0165515, Final residual = 8.22406e-06, No Iterations 17
DICPCG:  Solving for p, Initial residual = 0.163422, Final residual = 0.00649014, No Iterations 10
time step continuity errors : sum local = 0.000483919, global = -5.27546e-05, cumulative = -0.00182702
DICPCG:  Solving for p, Initial residual = 0.0224249, Final residual = 8.88901e-07, No Iterations 50
time step continuity errors : sum local = 5.8866e-08, global = 1.5675e-09, cumulative = -0.00182702
ExecutionTime = 0.4 s  ClockTime = 2 s

Time = 0.069

Courant Number mean: 3.62439 max: 6.67414
smoothSolver:  Solving for Ux, Initial residual = 0.0215449, Final residual = 8.93441e-06, No Iterations 16
smoothSolver:  Solving for Uy, Initial residual = 0.0171505, Final residual = 6.77072e-06, No Iterations 18
DICPCG:  Solving for p, Initial residual = 0.159945, Final residual = 0.0061874, No Iterations 28
time step continuity errors : sum local = 0.000463366, global = 3.09329e-06, cumulative = -0.00182392
DICPCG:  Solving for p, Initial residual = 0.0318917, Final residual = 6.80739e-07, No Iterations 50
time step continuity errors : sum local = 3.34894e-08, global = 4.13329e-10, cumulative = -0.00182392
ExecutionTime = 0.4 s  ClockTime = 2 s

Time = 0.07

Courant Number mean: 3.66626 max: 6.75688
smoothSolver:  Solving for Ux, Initial residual = 0.0249484, Final residual = 8.84593e-06, No Iterations 18
smoothSolver:  Solving for Uy, Initial residual = 0.00986144, Final residual = 9.60779e-06, No Iterations 16
DICPCG:  Solving for p, Initial residual = 0.17184, Final residual = 0.0078983, No Iterations 24
time step continuity errors : sum local = 0.000536094, global = 5.4878e-05, cumulative = -0.00176904
DICPCG:  Solving for p, Initial residual = 0.0171894, Final residual = 7.71913e-07, No Iterations 49
time step continuity errors : sum local = 8.93375e-08, global = -3.09547e-09, cumulative = -0.00176905
ExecutionTime = 0.41 s  ClockTime = 3 s

Time = 0.071

Courant Number mean: 3.7184 max: 6.84348
smoothSolver:  Solving for Ux, Initial residual = 0.0304339, Final residual = 6.97742e-06, No Iterations 18
smoothSolver:  Solving for Uy, Initial residual = 0.0174568, Final residual = 8.02295e-06, No Iterations 18
DICPCG:  Solving for p, Initial residual = 0.166674, Final residual = 0.00722949, No Iterations 17
time step continuity errors : sum local = 0.000548451, global = 1.94044e-05, cumulative = -0.00174964
DICPCG:  Solving for p, Initial residual = 0.0318698, Final residual = 7.26458e-07, No Iterations 50
time step continuity errors : sum local = 5.2174e-08, global = -1.65273e-09, cumulative = -0.00174964
ExecutionTime = 0.41 s  ClockTime = 3 s

Time = 0.072

Courant Number mean: 3.77059 max: 6.93421
smoothSolver:  Solving for Ux, Initial residual = 0.0361992, Final residual = 9.72874e-06, No Iterations 19
smoothSolver:  Solving for Uy, Initial residual = 0.0111651, Final residual = 7.02331e-06, No Iterations 17
DICPCG:  Solving for p, Initial residual = 0.156389, Final residual = 0.00721395, No Iterations 23
time step continuity errors : sum local = 0.000523256, global = -7.07291e-06, cumulative = -0.00175672
DICPCG:  Solving for p, Initial residual = 0.0219834, Final residual = 6.14335e-07, No Iterations 50
time step continuity errors : sum local = 6.5185e-08, global = -2.07349e-09, cumulative = -0.00175672
ExecutionTime = 0.42 s  ClockTime = 3 s

Time = 0.073

Courant Number mean: 3.82285 max: 7.02444
smoothSolver:  Solving for Ux, Initial residual = 0.0426535, Final residual = 7.52867e-06, No Iterations 20
smoothSolver:  Solving for Uy, Initial residual = 0.0151258, Final residual = 7.1404e-06, No Iterations 18
DICPCG:  Solving for p, Initial residual = 0.158417, Final residual = 0.00747723, No Iterations 18
time step continuity errors : sum local = 0.000578702, global = 0.000116274, cumulative = -0.00164044
DICPCG:  Solving for p, Initial residual = 0.0371226, Final residual = 6.31676e-07, No Iterations 51
time step continuity errors : sum local = 4.43565e-08, global = -2.14978e-11, cumulative = -0.00164044
ExecutionTime = 0.42 s  ClockTime = 3 s

Time = 0.074

Courant Number mean: 3.86475 max: 7.10455
smoothSolver:  Solving for Ux, Initial residual = 0.0415779, Final residual = 6.88781e-06, No Iterations 20
smoothSolver:  Solving for Uy, Initial residual = 0.00644782, Final residual = 7.15494e-06, No Iterations 16
DICPCG:  Solving for p, Initial residual = 0.187755, Final residual = 0.00857093, No Iterations 28
time step continuity errors : sum local = 0.000555669, global = 3.51624e-05, cumulative = -0.00160528
DICPCG:  Solving for p, Initial residual = 0.0194528, Final residual = 7.42097e-07, No Iterations 49
time step continuity errors : sum local = 1.15077e-07, global = -4.78233e-09, cumulative = -0.00160529
ExecutionTime = 0.43 s  ClockTime = 3 s

Time = 0.075

Courant Number mean: 3.9168 max: 7.18389
smoothSolver:  Solving for Ux, Initial residual = 0.044531, Final residual = 8.92124e-06, No Iterations 20
smoothSolver:  Solving for Uy, Initial residual = 0.0167384, Final residual = 7.66739e-06, No Iterations 18
DICPCG:  Solving for p, Initial residual = 0.145866, Final residual = 0.00668038, No Iterations 18
time step continuity errors : sum local = 0.000547814, global = 0.000120409, cumulative = -0.00148488
DICPCG:  Solving for p, Initial residual = 0.0323678, Final residual = 7.92929e-07, No Iterations 47
time step continuity errors : sum local = 5.9056e-08, global = -1.92164e-09, cumulative = -0.00148488
ExecutionTime = 0.43 s  ClockTime = 3 s

Time = 0.076

Courant Number mean: 3.969 max: 7.28219
smoothSolver:  Solving for Ux, Initial residual = 0.0387129, Final residual = 9.53288e-06, No Iterations 16
smoothSolver:  Solving for Uy, Initial residual = 0.00797337, Final residual = 7.18888e-06, No Iterations 17
DICPCG:  Solving for p, Initial residual = 0.156667, Final residual = 0.00484146, No Iterations 28
time step continuity errors : sum local = 0.000332618, global = -3.48624e-06, cumulative = -0.00148837
DICPCG:  Solving for p, Initial residual = 0.0159765, Final residual = 6.38094e-07, No Iterations 47
time step continuity errors : sum local = 7.95206e-08, global = -7.08937e-09, cumulative = -0.00148837
ExecutionTime = 0.44 s  ClockTime = 3 s

Time = 0.077

Courant Number mean: 4.01071 max: 7.3527
smoothSolver:  Solving for Ux, Initial residual = 0.0242282, Final residual = 6.09339e-06, No Iterations 17
smoothSolver:  Solving for Uy, Initial residual = 0.0121862, Final residual = 8.8564e-06, No Iterations 17
DICPCG:  Solving for p, Initial residual = 0.12955, Final residual = 0.00473841, No Iterations 23
time step continuity errors : sum local = 0.000372699, global = 3.13853e-05, cumulative = -0.00145699
DICPCG:  Solving for p, Initial residual = 0.0152542, Final residual = 5.63211e-07, No Iterations 50
time step continuity errors : sum local = 5.34221e-08, global = -6.94142e-10, cumulative = -0.00145699
ExecutionTime = 0.44 s  ClockTime = 3 s

Time = 0.078

Courant Number mean: 4.06292 max: 7.44702
smoothSolver:  Solving for Ux, Initial residual = 0.0224494, Final residual = 9.0626e-06, No Iterations 19
smoothSolver:  Solving for Uy, Initial residual = 0.013911, Final residual = 7.98541e-06, No Iterations 18
DICPCG:  Solving for p, Initial residual = 0.13253, Final residual = 0.00639182, No Iterations 17
time step continuity errors : sum local = 0.000512507, global = 0.000112225, cumulative = -0.00134476
DICPCG:  Solving for p, Initial residual = 0.0253858, Final residual = 6.31364e-07, No Iterations 50
time step continuity errors : sum local = 4.7224e-08, global = 3.56432e-10, cumulative = -0.00134476
ExecutionTime = 0.45 s  ClockTime = 3 s

Time = 0.079

Courant Number mean: 4.10481 max: 7.52863
smoothSolver:  Solving for Ux, Initial residual = 0.0258429, Final residual = 9.20385e-06, No Iterations 17
smoothSolver:  Solving for Uy, Initial residual = 0.00593444, Final residual = 7.47135e-06, No Iterations 16
DICPCG:  Solving for p, Initial residual = 0.154437, Final residual = 0.00560021, No Iterations 23
time step continuity errors : sum local = 0.000388395, global = 4.19461e-05, cumulative = -0.00130282
DICPCG:  Solving for p, Initial residual = 0.0182386, Final residual = 6.04279e-07, No Iterations 49
time step continuity errors : sum local = 9.58761e-08, global = -1.46196e-09, cumulative = -0.00130282
ExecutionTime = 0.45 s  ClockTime = 3 s

Time = 0.08

Courant Number mean: 4.15685 max: 7.6096
smoothSolver:  Solving for Ux, Initial residual = 0.0366264, Final residual = 7.13754e-06, No Iterations 21
smoothSolver:  Solving for Uy, Initial residual = 0.01608, Final residual = 9.10858e-06, No Iterations 18
DICPCG:  Solving for p, Initial residual = 0.130058, Final residual = 0.00606321, No Iterations 28
time step continuity errors : sum local = 0.000517674, global = 5.27603e-05, cumulative = -0.00125006
DICPCG:  Solving for p, Initial residual = 0.0515609, Final residual = 8.15296e-07, No Iterations 51
time step continuity errors : sum local = 3.92699e-08, global = 5.58634e-10, cumulative = -0.00125006
ExecutionTime = 0.47 s  ClockTime = 3 s

Time = 0.081

Courant Number mean: 4.19873 max: 7.6943
smoothSolver:  Solving for Ux, Initial residual = 0.0375875, Final residual = 8.82065e-06, No Iterations 20
smoothSolver:  Solving for Uy, Initial residual = 0.0072668, Final residual = 8.84719e-06, No Iterations 16
DICPCG:  Solving for p, Initial residual = 0.142571, Final residual = 0.00613529, No Iterations 26
time step continuity errors : sum local = 0.000462383, global = 2.71068e-05, cumulative = -0.00122295
DICPCG:  Solving for p, Initial residual = 0.0184568, Final residual = 8.53605e-07, No Iterations 49
time step continuity errors : sum local = 9.67726e-08, global = 2.37294e-09, cumulative = -0.00122295
ExecutionTime = 0.48 s  ClockTime = 3 s

Time = 0.082

Courant Number mean: 4.24064 max: 7.76825
smoothSolver:  Solving for Ux, Initial residual = 0.030287, Final residual = 7.8544e-06, No Iterations 17
smoothSolver:  Solving for Uy, Initial residual = 0.0119565, Final residual = 7.63944e-06, No Iterations 18
DICPCG:  Solving for p, Initial residual = 0.123386, Final residual = 0.00570678, No Iterations 28
time step continuity errors : sum local = 0.000467087, global = -1.27825e-05, cumulative = -0.00123573
DICPCG:  Solving for p, Initial residual = 0.0193243, Final residual = 6.26229e-07, No Iterations 50
time step continuity errors : sum local = 6.17593e-08, global = -1.61626e-09, cumulative = -0.00123573
ExecutionTime = 0.48 s  ClockTime = 3 s

Time = 0.083

Courant Number mean: 4.29274 max: 7.85784
smoothSolver:  Solving for Ux, Initial residual = 0.0258812, Final residual = 7.50722e-06, No Iterations 17
smoothSolver:  Solving for Uy, Initial residual = 0.0119269, Final residual = 7.10799e-06, No Iterations 18
DICPCG:  Solving for p, Initial residual = 0.111016, Final residual = 0.00495207, No Iterations 15
time step continuity errors : sum local = 0.000418769, global = 3.88747e-05, cumulative = -0.00119686
DICPCG:  Solving for p, Initial residual = 0.0230355, Final residual = 8.09603e-07, No Iterations 47
time step continuity errors : sum local = 6.40662e-08, global = 2.61782e-09, cumulative = -0.00119686
ExecutionTime = 0.49 s  ClockTime = 3 s

Time = 0.084

Courant Number mean: 4.33462 max: 7.93729
smoothSolver:  Solving for Ux, Initial residual = 0.0293575, Final residual = 8.23799e-06, No Iterations 17
smoothSolver:  Solving for Uy, Initial residual = 0.00698472, Final residual = 9.33713e-06, No Iterations 16
DICPCG:  Solving for p, Initial residual = 0.11856, Final residual = 0.00585677, No Iterations 24
time step continuity errors : sum local = 0.000460702, global = 3.1193e-05, cumulative = -0.00116566
DICPCG:  Solving for p, Initial residual = 0.0150576, Final residual = 7.67427e-07, No Iterations 47
time step continuity errors : sum local = 8.91543e-08, global = 7.74541e-10, cumulative = -0.00116566
ExecutionTime = 0.49 s  ClockTime = 3 s

Time = 0.085

Courant Number mean: 4.37642 max: 8.00776
smoothSolver:  Solving for Ux, Initial residual = 0.0257057, Final residual = 6.55871e-06, No Iterations 20
smoothSolver:  Solving for Uy, Initial residual = 0.0119809, Final residual = 8.43417e-06, No Iterations 18
DICPCG:  Solving for p, Initial residual = 0.11154, Final residual = 0.00554273, No Iterations 29
time step continuity errors : sum local = 0.000469363, global = 5.83766e-06, cumulative = -0.00115982
DICPCG:  Solving for p, Initial residual = 0.0202426, Final residual = 6.57233e-07, No Iterations 50
time step continuity errors : sum local = 6.45447e-08, global = 4.94978e-10, cumulative = -0.00115982
ExecutionTime = 0.49 s  ClockTime = 3 s

Time = 0.086

Courant Number mean: 4.42853 max: 8.09571
smoothSolver:  Solving for Ux, Initial residual = 0.0272094, Final residual = 6.779e-06, No Iterations 20
smoothSolver:  Solving for Uy, Initial residual = 0.0114424, Final residual = 6.74608e-06, No Iterations 18
DICPCG:  Solving for p, Initial residual = 0.105874, Final residual = 0.00498557, No Iterations 13
time step continuity errors : sum local = 0.000433363, global = 4.10871e-05, cumulative = -0.00111874
DICPCG:  Solving for p, Initial residual = 0.0180086, Final residual = 6.68926e-07, No Iterations 49
time step continuity errors : sum local = 5.41598e-08, global = 1.31984e-09, cumulative = -0.00111874
ExecutionTime = 0.5 s  ClockTime = 3 s

Time = 0.087

Courant Number mean: 4.47042 max: 8.17719
smoothSolver:  Solving for Ux, Initial residual = 0.0245587, Final residual = 9.2462e-06, No Iterations 16
smoothSolver:  Solving for Uy, Initial residual = 0.00584786, Final residual = 8.42244e-06, No Iterations 16
DICPCG:  Solving for p, Initial residual = 0.107873, Final residual = 0.00390208, No Iterations 23
time step continuity errors : sum local = 0.00030974, global = -5.05611e-05, cumulative = -0.0011693
DICPCG:  Solving for p, Initial residual = 0.0135725, Final residual = 7.61573e-07, No Iterations 47
time step continuity errors : sum local = 9.90954e-08, global = -5.43539e-09, cumulative = -0.0011693
ExecutionTime = 0.5 s  ClockTime = 3 s

Time = 0.088

Courant Number mean: 4.51211 max: 8.24496
smoothSolver:  Solving for Ux, Initial residual = 0.019841, Final residual = 8.37524e-06, No Iterations 18
smoothSolver:  Solving for Uy, Initial residual = 0.0105077, Final residual = 9.00147e-06, No Iterations 17
DICPCG:  Solving for p, Initial residual = 0.0973479, Final residual = 0.0037933, No Iterations 11
time step continuity errors : sum local = 0.000334163, global = 2.41151e-05, cumulative = -0.00114519
DICPCG:  Solving for p, Initial residual = 0.016736, Final residual = 9.32821e-07, No Iterations 48
time step continuity errors : sum local = 7.68416e-08, global = 1.08565e-09, cumulative = -0.00114519
ExecutionTime = 0.5 s  ClockTime = 3 s

Time = 0.089

Courant Number mean: 4.55393 max: 8.32254
smoothSolver:  Solving for Ux, Initial residual = 0.0172661, Final residual = 7.52811e-06, No Iterations 16
smoothSolver:  Solving for Uy, Initial residual = 0.00972117, Final residual = 7.67952e-06, No Iterations 18
DICPCG:  Solving for p, Initial residual = 0.104548, Final residual = 0.0046677, No Iterations 18
time step continuity errors : sum local = 0.000399238, global = -9.92939e-05, cumulative = -0.00124448
DICPCG:  Solving for p, Initial residual = 0.0172702, Final residual = 9.52957e-07, No Iterations 47
time step continuity errors : sum local = 8.07364e-08, global = -3.54945e-09, cumulative = -0.00124448
ExecutionTime = 0.51 s  ClockTime = 3 s

Time = 0.09

Courant Number mean: 4.59566 max: 8.39682
smoothSolver:  Solving for Ux, Initial residual = 0.0159387, Final residual = 8.40709e-06, No Iterations 15
smoothSolver:  Solving for Uy, Initial residual = 0.0126474, Final residual = 7.4929e-06, No Iterations 18
DICPCG:  Solving for p, Initial residual = 0.0836829, Final residual = 0.00264519, No Iterations 28
time step continuity errors : sum local = 0.000246171, global = 4.12683e-06, cumulative = -0.00124036
DICPCG:  Solving for p, Initial residual = 0.0198705, Final residual = 9.49571e-07, No Iterations 48
time step continuity errors : sum local = 6.03051e-08, global = 1.25169e-09, cumulative = -0.00124035
ExecutionTime = 0.52 s  ClockTime = 3 s

Time = 0.091

Courant Number mean: 4.63759 max: 8.47771
smoothSolver:  Solving for Ux, Initial residual = 0.0150217, Final residual = 7.95485e-06, No Iterations 16
smoothSolver:  Solving for Uy, Initial residual = 0.00783859, Final residual = 9.84935e-06, No Iterations 17
DICPCG:  Solving for p, Initial residual = 0.0955773, Final residual = 0.00392492, No Iterations 28
time step continuity errors : sum local = 0.000334754, global = -1.13743e-05, cumulative = -0.00125173
DICPCG:  Solving for p, Initial residual = 0.012635, Final residual = 6.74955e-07, No Iterations 46
time step continuity errors : sum local = 7.36125e-08, global = 6.41424e-09, cumulative = -0.00125172
ExecutionTime = 0.52 s  ClockTime = 3 s

Time = 0.092

Courant Number mean: 4.67925 max: 8.54764
smoothSolver:  Solving for Ux, Initial residual = 0.0185254, Final residual = 8.41317e-06, No Iterations 16
smoothSolver:  Solving for Uy, Initial residual = 0.00931294, Final residual = 6.7504e-06, No Iterations 18
DICPCG:  Solving for p, Initial residual = 0.0875562, Final residual = 0.00428546, No Iterations 13
time step continuity errors : sum local = 0.000383488, global = -9.99593e-05, cumulative = -0.00135168
DICPCG:  Solving for p, Initial residual = 0.01661, Final residual = 6.37456e-07, No Iterations 50
time step continuity errors : sum local = 5.48187e-08, global = -1.70031e-10, cumulative = -0.00135168
ExecutionTime = 0.52 s  ClockTime = 3 s

Time = 0.093

Courant Number mean: 4.72097 max: 8.61987
smoothSolver:  Solving for Ux, Initial residual = 0.0202596, Final residual = 7.8824e-06, No Iterations 15
smoothSolver:  Solving for Uy, Initial residual = 0.0115747, Final residual = 6.89132e-06, No Iterations 18
DICPCG:  Solving for p, Initial residual = 0.0869188, Final residual = 0.00292517, No Iterations 28
time step continuity errors : sum local = 0.000275336, global = -4.2495e-06, cumulative = -0.00135593
DICPCG:  Solving for p, Initial residual = 0.0180966, Final residual = 8.4428e-07, No Iterations 49
time step continuity errors : sum local = 5.98244e-08, global = -1.90442e-09, cumulative = -0.00135593
ExecutionTime = 0.53 s  ClockTime = 3 s

Time = 0.094

Courant Number mean: 4.76291 max: 8.69923
smoothSolver:  Solving for Ux, Initial residual = 0.017393, Final residual = 9.1857e-06, No Iterations 18
smoothSolver:  Solving for Uy, Initial residual = 0.00736338, Final residual = 9.30672e-06, No Iterations 17
DICPCG:  Solving for p, Initial residual = 0.0818504, Final residual = 0.00394717, No Iterations 16
time step continuity errors : sum local = 0.000349259, global = -6.441e-05, cumulative = -0.00142034
DICPCG:  Solving for p, Initial residual = 0.0135528, Final residual = 7.22524e-07, No Iterations 45
time step continuity errors : sum local = 6.23687e-08, global = 1.02214e-09, cumulative = -0.00142034
ExecutionTime = 0.53 s  ClockTime = 3 s

Time = 0.095

Courant Number mean: 4.79417 max: 8.75465
smoothSolver:  Solving for Ux, Initial residual = 0.0185694, Final residual = 6.67755e-06, No Iterations 18
smoothSolver:  Solving for Uy, Initial residual = 0.00856694, Final residual = 8.13795e-06, No Iterations 17
DICPCG:  Solving for p, Initial residual = 0.0829068, Final residual = 0.00291384, No Iterations 28
time step continuity errors : sum local = 0.000266581, global = -8.31123e-06, cumulative = -0.00142865
DICPCG:  Solving for p, Initial residual = 0.0127583, Final residual = 7.7336e-07, No Iterations 49
time step continuity errors : sum local = 7.4165e-08, global = -1.69695e-09, cumulative = -0.00142866
ExecutionTime = 0.54 s  ClockTime = 3 s

Time = 0.096

Courant Number mean: 4.83597 max: 8.8259
smoothSolver:  Solving for Ux, Initial residual = 0.015109, Final residual = 9.98187e-06, No Iterations 18
smoothSolver:  Solving for Uy, Initial residual = 0.00879651, Final residual = 7.47389e-06, No Iterations 18
DICPCG:  Solving for p, Initial residual = 0.0811893, Final residual = 0.00344063, No Iterations 29
time step continuity errors : sum local = 0.000312922, global = 1.36102e-06, cumulative = -0.00142729
DICPCG:  Solving for p, Initial residual = 0.0109008, Final residual = 5.72064e-07, No Iterations 49
time step continuity errors : sum local = 5.6238e-08, global = 1.25494e-09, cumulative = -0.00142729
ExecutionTime = 0.54 s  ClockTime = 3 s

Time = 0.097

Courant Number mean: 4.87766 max: 8.89551
smoothSolver:  Solving for Ux, Initial residual = 0.0164344, Final residual = 6.72351e-06, No Iterations 20
smoothSolver:  Solving for Uy, Initial residual = 0.00822159, Final residual = 9.57331e-06, No Iterations 17
DICPCG:  Solving for p, Initial residual = 0.0758264, Final residual = 0.00377979, No Iterations 19
time step continuity errors : sum local = 0.000349284, global = 9.73471e-05, cumulative = -0.00132995
DICPCG:  Solving for p, Initial residual = 0.0131728, Final residual = 9.89375e-07, No Iterations 46
time step continuity errors : sum local = 8.5695e-08, global = 1.65485e-09, cumulative = -0.00132994
ExecutionTime = 0.55 s  ClockTime = 3 s

Time = 0.098

Courant Number mean: 4.90907 max: 8.95477
smoothSolver:  Solving for Ux, Initial residual = 0.0174535, Final residual = 7.69761e-06, No Iterations 16
smoothSolver:  Solving for Uy, Initial residual = 0.00418178, Final residual = 9.97561e-06, No Iterations 16
DICPCG:  Solving for p, Initial residual = 0.0866803, Final residual = 0.00288852, No Iterations 28
time step continuity errors : sum local = 0.000241267, global = -4.9099e-08, cumulative = -0.00132999
DICPCG:  Solving for p, Initial residual = 0.0127606, Final residual = 6.28021e-07, No Iterations 49
time step continuity errors : sum local = 9.76817e-08, global = -5.04273e-10, cumulative = -0.00132999
ExecutionTime = 0.55 s  ClockTime = 3 s

Time = 0.099

Courant Number mean: 4.95056 max: 9.01152
smoothSolver:  Solving for Ux, Initial residual = 0.0201463, Final residual = 9.97554e-06, No Iterations 17
smoothSolver:  Solving for Uy, Initial residual = 0.0102245, Final residual = 7.84612e-06, No Iterations 18
DICPCG:  Solving for p, Initial residual = 0.0777193, Final residual = 0.00342411, No Iterations 28
time step continuity errors : sum local = 0.000329261, global = 1.10934e-05, cumulative = -0.0013189
DICPCG:  Solving for p, Initial residual = 0.0230636, Final residual = 9.49684e-07, No Iterations 47
time step continuity errors : sum local = 5.91372e-08, global = -5.43964e-09, cumulative = -0.00131891
ExecutionTime = 0.55 s  ClockTime = 3 s

Time = 0.1

Courant Number mean: 4.98204 max: 9.07556
smoothSolver:  Solving for Ux, Initial residual = 0.0240148, Final residual = 9.73402e-06, No Iterations 20
smoothSolver:  Solving for Uy, Initial residual = 0.00514201, Final residual = 7.22135e-06, No Iterations 17
DICPCG:  Solving for p, Initial residual = 0.0856609, Final residual = 0.00363635, No Iterations 27
time step continuity errors : sum local = 0.000321108, global = 2.34563e-05, cumulative = -0.00129545
DICPCG:  Solving for p, Initial residual = 0.0148857, Final residual = 6.24336e-07, No Iterations 50
time step continuity errors : sum local = 8.43302e-08, global = -2.77709e-09, cumulative = -0.00129545
ExecutionTime = 0.57 s  ClockTime = 3 s

Time = 0.101

Courant Number mean: 5.02371 max: 9.13992
smoothSolver:  Solving for Ux, Initial residual = 0.0257306, Final residual = 7.67175e-06, No Iterations 19
smoothSolver:  Solving for Uy, Initial residual = 0.00978021, Final residual = 8.6163e-06, No Iterations 18
DICPCG:  Solving for p, Initial residual = 0.0811951, Final residual = 0.00381689, No Iterations 28
time step continuity errors : sum local = 0.000368888, global = -5.40841e-06, cumulative = -0.00130086
DICPCG:  Solving for p, Initial residual = 0.031798, Final residual = 5.79392e-07, No Iterations 51
time step continuity errors : sum local = 3.86561e-08, global = -7.69553e-10, cumulative = -0.00130086
ExecutionTime = 0.58 s  ClockTime = 3 s

Time = 0.102

Courant Number mean: 5.05511 max: 9.20084
smoothSolver:  Solving for Ux, Initial residual = 0.0313691, Final residual = 8.57279e-06, No Iterations 20
smoothSolver:  Solving for Uy, Initial residual = 0.00473114, Final residual = 9.51119e-06, No Iterations 16
DICPCG:  Solving for p, Initial residual = 0.0804986, Final residual = 0.00395812, No Iterations 27
time step continuity errors : sum local = 0.000357194, global = 2.03143e-05, cumulative = -0.00128055
DICPCG:  Solving for p, Initial residual = 0.0180018, Final residual = 8.81016e-07, No Iterations 47
time step continuity errors : sum local = 1.04029e-07, global = 7.40323e-09, cumulative = -0.00128054
ExecutionTime = 0.58 s  ClockTime = 3 s

Time = 0.103

Courant Number mean: 5.08644 max: 9.25137
smoothSolver:  Solving for Ux, Initial residual = 0.0299469, Final residual = 7.84471e-06, No Iterations 20
smoothSolver:  Solving for Uy, Initial residual = 0.00767327, Final residual = 7.12693e-06, No Iterations 18
DICPCG:  Solving for p, Initial residual = 0.0778394, Final residual = 0.00340002, No Iterations 29
time step continuity errors : sum local = 0.000322839, global = -1.5201e-05, cumulative = -0.00129574
DICPCG:  Solving for p, Initial residual = 0.0185491, Final residual = 8.16494e-07, No Iterations 48
time step continuity errors : sum local = 8.69993e-08, global = 7.93445e-10, cumulative = -0.00129574
ExecutionTime = 0.58 s  ClockTime = 3 s

Time = 0.104

Courant Number mean: 5.12811 max: 9.31935
smoothSolver:  Solving for Ux, Initial residual = 0.0265404, Final residual = 8.66194e-06, No Iterations 17
smoothSolver:  Solving for Uy, Initial residual = 0.00790397, Final residual = 7.47257e-06, No Iterations 18
DICPCG:  Solving for p, Initial residual = 0.0699434, Final residual = 0.00334066, No Iterations 17
time step continuity errors : sum local = 0.000321915, global = 7.99657e-05, cumulative = -0.00121577
DICPCG:  Solving for p, Initial residual = 0.0151602, Final residual = 8.37404e-07, No Iterations 49
time step continuity errors : sum local = 7.6907e-08, global = -3.58865e-10, cumulative = -0.00121578
ExecutionTime = 0.59 s  ClockTime = 3 s

Time = 0.105

Courant Number mean: 5.15954 max: 9.37672
smoothSolver:  Solving for Ux, Initial residual = 0.0203498, Final residual = 6.89759e-06, No Iterations 20
smoothSolver:  Solving for Uy, Initial residual = 0.00351816, Final residual = 7.93324e-06, No Iterations 16
DICPCG:  Solving for p, Initial residual = 0.075094, Final residual = 0.00356025, No Iterations 30
time step continuity errors : sum local = 0.000313796, global = 1.36137e-05, cumulative = -0.00120216
DICPCG:  Solving for p, Initial residual = 0.0120481, Final residual = 5.35684e-07, No Iterations 49
time step continuity errors : sum local = 7.42466e-08, global = -2.57939e-09, cumulative = -0.00120216
ExecutionTime = 0.59 s  ClockTime = 3 s

Time = 0.106

Courant Number mean: 5.19075 max: 9.42332
smoothSolver:  Solving for Ux, Initial residual = 0.020308, Final residual = 8.26563e-06, No Iterations 20
smoothSolver:  Solving for Uy, Initial residual = 0.00739315, Final residual = 9.19325e-06, No Iterations 17
DICPCG:  Solving for p, Initial residual = 0.0642792, Final residual = 0.00310806, No Iterations 13
time step continuity errors : sum local = 0.000303202, global = 7.41314e-05, cumulative = -0.00112803
DICPCG:  Solving for p, Initial residual = 0.0132047, Final residual = 9.40702e-07, No Iterations 47
time step continuity errors : sum local = 8.77963e-08, global = -3.67045e-10, cumulative = -0.00112803
ExecutionTime = 0.6 s  ClockTime = 3 s

Time = 0.107

Courant Number mean: 5.22217 max: 9.48346
smoothSolver:  Solving for Ux, Initial residual = 0.0152724, Final residual = 8.46709e-06, No Iterations 16
smoothSolver:  Solving for Uy, Initial residual = 0.00322657, Final residual = 9.98556e-06, No Iterations 15
DICPCG:  Solving for p, Initial residual = 0.0741122, Final residual = 0.00204081, No Iterations 28
time step continuity errors : sum local = 0.000180457, global = 8.47407e-07, cumulative = -0.00112719
DICPCG:  Solving for p, Initial residual = 0.011586, Final residual = 7.29692e-07, No Iterations 49
time step continuity errors : sum local = 1.05957e-07, global = 1.1788e-09, cumulative = -0.00112718
ExecutionTime = 0.6 s  ClockTime = 3 s

Time = 0.108

Courant Number mean: 5.25332 max: 9.52938
smoothSolver:  Solving for Ux, Initial residual = 0.0170178, Final residual = 7.62763e-06, No Iterations 18
smoothSolver:  Solving for Uy, Initial residual = 0.00757943, Final residual = 9.96917e-06, No Iterations 17
DICPCG:  Solving for p, Initial residual = 0.0624865, Final residual = 0.00198589, No Iterations 28
time step continuity errors : sum local = 0.000195494, global = 4.58614e-06, cumulative = -0.0011226
DICPCG:  Solving for p, Initial residual = 0.0131974, Final residual = 9.13689e-07, No Iterations 49
time step continuity errors : sum local = 7.8449e-08, global = 8.39338e-10, cumulative = -0.0011226
ExecutionTime = 0.6 s  ClockTime = 4 s

Time = 0.109

Courant Number mean: 5.28472 max: 9.58891
smoothSolver:  Solving for Ux, Initial residual = 0.0122619, Final residual = 9.39373e-06, No Iterations 16
smoothSolver:  Solving for Uy, Initial residual = 0.00518617, Final residual = 8.60646e-06, No Iterations 17
DICPCG:  Solving for p, Initial residual = 0.060265, Final residual = 0.00238487, No Iterations 30
time step continuity errors : sum local = 0.000226031, global = 4.15319e-07, cumulative = -0.00112218
DICPCG:  Solving for p, Initial residual = 0.00801248, Final residual = 7.39249e-07, No Iterations 48
time step continuity errors : sum local = 8.31469e-08, global = 8.24362e-10, cumulative = -0.00112218
ExecutionTime = 0.6 s  ClockTime = 4 s

Time = 0.11

Courant Number mean: 5.31602 max: 9.64195
smoothSolver:  Solving for Ux, Initial residual = 0.0136406, Final residual = 7.88597e-06, No Iterations 20
smoothSolver:  Solving for Uy, Initial residual = 0.00612097, Final residual = 8.94356e-06, No Iterations 17
DICPCG:  Solving for p, Initial residual = 0.0588079, Final residual = 0.00284411, No Iterations 11
time step continuity errors : sum local = 0.000277537, global = -8.15086e-05, cumulative = -0.00120369
DICPCG:  Solving for p, Initial residual = 0.0122745, Final residual = 8.82633e-07, No Iterations 47
time step continuity errors : sum local = 8.34397e-08, global = -4.96905e-09, cumulative = -0.00120369
ExecutionTime = 0.62 s  ClockTime = 4 s

Time = 0.111

Courant Number mean: 5.34734 max: 9.69759
smoothSolver:  Solving for Ux, Initial residual = 0.013093, Final residual = 9.33945e-06, No Iterations 16
[...]
smoothSolver:  Solving for Uy, Initial residual = 0.0027771, Final residual = 6.90261e-06, No Iterations 9
DICPCG:  Solving for p, Initial residual = 0.0597653, Final residual = 0.00292679, No Iterations 27
time step continuity errors : sum local = 5.13299e-05, global = -5.11361e-07, cumulative = 0.00246316
DICPCG:  Solving for p, Initial residual = 0.00751338, Final residual = 6.10255e-07, No Iterations 45
time step continuity errors : sum local = 1.3737e-08, global = 3.19625e-10, cumulative = 0.00246316
ExecutionTime = 4.73 s  ClockTime = 26 s

Time = 0.974

Courant Number mean: 0.835636 max: 1.58547
smoothSolver:  Solving for Ux, Initial residual = 0.00681698, Final residual = 6.5721e-06, No Iterations 10
smoothSolver:  Solving for Uy, Initial residual = 0.000536723, Final residual = 8.50125e-06, No Iterations 6
DICPCG:  Solving for p, Initial residual = 0.0967706, Final residual = 0.00269057, No Iterations 28
time step continuity errors : sum local = 5.37298e-05, global = 1.14334e-06, cumulative = 0.0024643
DICPCG:  Solving for p, Initial residual = 0.00974839, Final residual = 9.38613e-07, No Iterations 47
time step continuity errors : sum local = 1.62566e-08, global = 5.83886e-10, cumulative = 0.0024643
ExecutionTime = 4.74 s  ClockTime = 26 s

Time = 0.975

Courant Number mean: 0.835634 max: 1.5855
smoothSolver:  Solving for Ux, Initial residual = 0.00715609, Final residual = 8.36524e-06, No Iterations 10
smoothSolver:  Solving for Uy, Initial residual = 0.000320113, Final residual = 6.78596e-06, No Iterations 5
DICPCG:  Solving for p, Initial residual = 0.0537276, Final residual = 0.00258587, No Iterations 16
time step continuity errors : sum local = 4.85923e-05, global = 9.58683e-06, cumulative = 0.00247389
DICPCG:  Solving for p, Initial residual = 0.00710534, Final residual = 9.63769e-07, No Iterations 46
time step continuity errors : sum local = 1.84507e-08, global = 1.6614e-10, cumulative = 0.00247389
ExecutionTime = 4.75 s  ClockTime = 26 s

Time = 0.976

Courant Number mean: 0.835639 max: 1.58558
smoothSolver:  Solving for Ux, Initial residual = 0.0036438, Final residual = 8.97401e-06, No Iterations 8
smoothSolver:  Solving for Uy, Initial residual = 0.00130347, Final residual = 5.91683e-06, No Iterations 8
DICPCG:  Solving for p, Initial residual = 0.0996431, Final residual = 0.00459963, No Iterations 15
time step continuity errors : sum local = 8.7847e-05, global = 3.79858e-06, cumulative = 0.00247769
DICPCG:  Solving for p, Initial residual = 0.00941745, Final residual = 9.54045e-07, No Iterations 47
time step continuity errors : sum local = 1.93529e-08, global = 6.59511e-10, cumulative = 0.00247769
ExecutionTime = 4.75 s  ClockTime = 26 s

Time = 0.977

Courant Number mean: 0.835634 max: 1.58544
smoothSolver:  Solving for Ux, Initial residual = 0.00450788, Final residual = 7.40284e-06, No Iterations 8
smoothSolver:  Solving for Uy, Initial residual = 0.000730869, Final residual = 9.75978e-06, No Iterations 6
DICPCG:  Solving for p, Initial residual = 0.0544101, Final residual = 0.00262835, No Iterations 11
time step continuity errors : sum local = 4.96219e-05, global = 1.68355e-05, cumulative = 0.00249452
DICPCG:  Solving for p, Initial residual = 0.00632935, Final residual = 6.46348e-07, No Iterations 45
time step continuity errors : sum local = 1.25707e-08, global = -7.05877e-10, cumulative = 0.00249452
ExecutionTime = 4.75 s  ClockTime = 26 s

Time = 0.978

Courant Number mean: 0.835636 max: 1.58554
smoothSolver:  Solving for Ux, Initial residual = 0.00378057, Final residual = 7.83274e-06, No Iterations 8
smoothSolver:  Solving for Uy, Initial residual = 0.00238624, Final residual = 5.80296e-06, No Iterations 9
DICPCG:  Solving for p, Initial residual = 0.0571735, Final residual = 0.0028361, No Iterations 27
time step continuity errors : sum local = 5.01474e-05, global = -2.1737e-07, cumulative = 0.0024943
DICPCG:  Solving for p, Initial residual = 0.00669092, Final residual = 9.12674e-07, No Iterations 45
time step continuity errors : sum local = 2.00754e-08, global = -5.27374e-10, cumulative = 0.0024943
ExecutionTime = 4.76 s  ClockTime = 26 s

Time = 0.979

Courant Number mean: 0.835634 max: 1.58527
smoothSolver:  Solving for Ux, Initial residual = 0.00528519, Final residual = 6.61472e-06, No Iterations 9
smoothSolver:  Solving for Uy, Initial residual = 0.000472867, Final residual = 7.27529e-06, No Iterations 6
DICPCG:  Solving for p, Initial residual = 0.0961256, Final residual = 0.00273126, No Iterations 28
time step continuity errors : sum local = 5.44917e-05, global = 8.48e-07, cumulative = 0.00249515
DICPCG:  Solving for p, Initial residual = 0.00902721, Final residual = 8.39798e-07, No Iterations 45
time step continuity errors : sum local = 1.45892e-08, global = -4.55912e-10, cumulative = 0.00249515
ExecutionTime = 4.76 s  ClockTime = 26 s

Time = 0.98

Courant Number mean: 0.835632 max: 1.58535
smoothSolver:  Solving for Ux, Initial residual = 0.0062565, Final residual = 8.78406e-06, No Iterations 9
smoothSolver:  Solving for Uy, Initial residual = 0.000283759, Final residual = 6.04844e-06, No Iterations 5
DICPCG:  Solving for p, Initial residual = 0.0532509, Final residual = 0.00252573, No Iterations 17
time step continuity errors : sum local = 4.74677e-05, global = 9.28807e-06, cumulative = 0.00250444
DICPCG:  Solving for p, Initial residual = 0.00667516, Final residual = 9.30612e-07, No Iterations 46
time step continuity errors : sum local = 1.77949e-08, global = -1.85319e-10, cumulative = 0.00250444
ExecutionTime = 4.78 s  ClockTime = 26 s

Time = 0.981

Courant Number mean: 0.835637 max: 1.58547
smoothSolver:  Solving for Ux, Initial residual = 0.00370035, Final residual = 6.99639e-06, No Iterations 8
smoothSolver:  Solving for Uy, Initial residual = 0.00132777, Final residual = 6.00242e-06, No Iterations 8
DICPCG:  Solving for p, Initial residual = 0.0994274, Final residual = 0.00479436, No Iterations 15
time step continuity errors : sum local = 9.15699e-05, global = 3.01533e-06, cumulative = 0.00250746
DICPCG:  Solving for p, Initial residual = 0.00904166, Final residual = 7.38421e-07, No Iterations 47
time step continuity errors : sum local = 1.49684e-08, global = 5.5165e-10, cumulative = 0.00250746
ExecutionTime = 4.78 s  ClockTime = 26 s

Time = 0.982

Courant Number mean: 0.835633 max: 1.58535
smoothSolver:  Solving for Ux, Initial residual = 0.00436203, Final residual = 9.38301e-06, No Iterations 8
smoothSolver:  Solving for Uy, Initial residual = 0.00073645, Final residual = 9.67392e-06, No Iterations 6
DICPCG:  Solving for p, Initial residual = 0.0545726, Final residual = 0.00267436, No Iterations 11
time step continuity errors : sum local = 5.05301e-05, global = 1.74742e-05, cumulative = 0.00252493
DICPCG:  Solving for p, Initial residual = 0.00649149, Final residual = 7.47486e-07, No Iterations 45
time step continuity errors : sum local = 1.45403e-08, global = -7.19592e-10, cumulative = 0.00252493
ExecutionTime = 4.78 s  ClockTime = 26 s

Time = 0.983

Courant Number mean: 0.835635 max: 1.58549
smoothSolver:  Solving for Ux, Initial residual = 0.00378205, Final residual = 7.79366e-06, No Iterations 8
smoothSolver:  Solving for Uy, Initial residual = 0.00243342, Final residual = 5.89578e-06, No Iterations 9
DICPCG:  Solving for p, Initial residual = 0.103754, Final residual = 0.00493271, No Iterations 18
time step continuity errors : sum local = 9.14654e-05, global = -2.37935e-05, cumulative = 0.00250114
DICPCG:  Solving for p, Initial residual = 0.00909418, Final residual = 7.02877e-07, No Iterations 45
time step continuity errors : sum local = 1.42376e-08, global = 7.65442e-11, cumulative = 0.00250114
ExecutionTime = 4.79 s  ClockTime = 26 s

Time = 0.984

Courant Number mean: 0.835626 max: 1.58514
smoothSolver:  Solving for Ux, Initial residual = 0.005003, Final residual = 5.82169e-06, No Iterations 9
smoothSolver:  Solving for Uy, Initial residual = 0.00301458, Final residual = 7.42743e-06, No Iterations 9
DICPCG:  Solving for p, Initial residual = 0.051428, Final residual = 0.00238055, No Iterations 27
time step continuity errors : sum local = 4.86588e-05, global = -2.78534e-07, cumulative = 0.00250086
DICPCG:  Solving for p, Initial residual = 0.0149215, Final residual = 8.97258e-07, No Iterations 46
time step continuity errors : sum local = 1.13977e-08, global = -2.52569e-10, cumulative = 0.00250086
ExecutionTime = 4.79 s  ClockTime = 26 s

Time = 0.985

Courant Number mean: 0.83563 max: 1.5857
smoothSolver:  Solving for Ux, Initial residual = 0.0073608, Final residual = 8.33145e-06, No Iterations 10
smoothSolver:  Solving for Uy, Initial residual = 0.000592259, Final residual = 9.58167e-06, No Iterations 6
DICPCG:  Solving for p, Initial residual = 0.099476, Final residual = 0.00439194, No Iterations 16
time step continuity errors : sum local = 8.57111e-05, global = 1.58279e-05, cumulative = 0.00251668
DICPCG:  Solving for p, Initial residual = 0.00926707, Final residual = 6.36476e-07, No Iterations 46
time step continuity errors : sum local = 1.29344e-08, global = -1.94665e-10, cumulative = 0.00251668
ExecutionTime = 4.79 s  ClockTime = 26 s

Time = 0.986

Courant Number mean: 0.835639 max: 1.58573
smoothSolver:  Solving for Ux, Initial residual = 0.00448661, Final residual = 6.60932e-06, No Iterations 9
smoothSolver:  Solving for Uy, Initial residual = 0.00213123, Final residual = 9.73275e-06, No Iterations 8
DICPCG:  Solving for p, Initial residual = 0.058787, Final residual = 0.00274539, No Iterations 27
time step continuity errors : sum local = 4.89468e-05, global = -8.92607e-07, cumulative = 0.00251579
DICPCG:  Solving for p, Initial residual = 0.00726481, Final residual = 8.15696e-07, No Iterations 47
time step continuity errors : sum local = 1.75135e-08, global = 6.41081e-10, cumulative = 0.00251579
ExecutionTime = 4.8 s  ClockTime = 26 s

Time = 0.987

Courant Number mean: 0.835632 max: 1.58546
smoothSolver:  Solving for Ux, Initial residual = 0.00618561, Final residual = 5.27251e-06, No Iterations 10
smoothSolver:  Solving for Uy, Initial residual = 0.000482941, Final residual = 7.7261e-06, No Iterations 6
DICPCG:  Solving for p, Initial residual = 0.0530615, Final residual = 0.00143999, No Iterations 28
time step continuity errors : sum local = 2.74133e-05, global = 7.47481e-07, cumulative = 0.00251654
DICPCG:  Solving for p, Initial residual = 0.00617558, Final residual = 6.76742e-07, No Iterations 47
time step continuity errors : sum local = 1.18044e-08, global = 4.83181e-10, cumulative = 0.00251654
ExecutionTime = 4.8 s  ClockTime = 26 s

Time = 0.988

Courant Number mean: 0.835633 max: 1.58551
smoothSolver:  Solving for Ux, Initial residual = 0.00409769, Final residual = 8.40011e-06, No Iterations 9
smoothSolver:  Solving for Uy, Initial residual = 0.000197644, Final residual = 7.84857e-06, No Iterations 4
DICPCG:  Solving for p, Initial residual = 0.0951242, Final residual = 0.00443769, No Iterations 19
time step continuity errors : sum local = 8.74443e-05, global = 1.83101e-05, cumulative = 0.00253485
DICPCG:  Solving for p, Initial residual = 0.00846519, Final residual = 9.66378e-07, No Iterations 42
time step continuity errors : sum local = 1.94253e-08, global = -1.06279e-09, cumulative = 0.00253485
ExecutionTime = 4.8 s  ClockTime = 26 s

Time = 0.989

Courant Number mean: 0.83564 max: 1.58561
smoothSolver:  Solving for Ux, Initial residual = 0.00483156, Final residual = 5.53015e-06, No Iterations 9
smoothSolver:  Solving for Uy, Initial residual = 0.00314357, Final residual = 7.82177e-06, No Iterations 9
DICPCG:  Solving for p, Initial residual = 0.06046, Final residual = 0.00162945, No Iterations 28
time step continuity errors : sum local = 2.84097e-05, global = -8.0375e-08, cumulative = 0.00253477
DICPCG:  Solving for p, Initial residual = 0.00707435, Final residual = 7.43449e-07, No Iterations 45
time step continuity errors : sum local = 1.70296e-08, global = -5.03304e-10, cumulative = 0.00253477
ExecutionTime = 4.81 s  ClockTime = 26 s

Time = 0.99

Courant Number mean: 0.835636 max: 1.58531
smoothSolver:  Solving for Ux, Initial residual = 0.00583192, Final residual = 8.57458e-06, No Iterations 9
smoothSolver:  Solving for Uy, Initial residual = 0.000565435, Final residual = 9.13613e-06, No Iterations 6
DICPCG:  Solving for p, Initial residual = 0.0960425, Final residual = 0.00267053, No Iterations 28
time step continuity errors : sum local = 5.3363e-05, global = 8.28482e-07, cumulative = 0.0025356
DICPCG:  Solving for p, Initial residual = 0.00915225, Final residual = 7.9533e-07, No Iterations 44
time step continuity errors : sum local = 1.37315e-08, global = 1.30923e-11, cumulative = 0.0025356
ExecutionTime = 4.83 s  ClockTime = 26 s

Time = 0.991

Courant Number mean: 0.835633 max: 1.58538
smoothSolver:  Solving for Ux, Initial residual = 0.00672127, Final residual = 7.3139e-06, No Iterations 10
smoothSolver:  Solving for Uy, Initial residual = 0.00031679, Final residual = 6.77896e-06, No Iterations 5
DICPCG:  Solving for p, Initial residual = 0.0534509, Final residual = 0.00244982, No Iterations 16
time step continuity errors : sum local = 4.60316e-05, global = 9.48314e-06, cumulative = 0.00254508
DICPCG:  Solving for p, Initial residual = 0.00681434, Final residual = 8.61303e-07, No Iterations 46
time step continuity errors : sum local = 1.64889e-08, global = -1.00628e-10, cumulative = 0.00254508
ExecutionTime = 4.83 s  ClockTime = 26 s

Time = 0.992

Courant Number mean: 0.835637 max: 1.58548
smoothSolver:  Solving for Ux, Initial residual = 0.00360426, Final residual = 9.55381e-06, No Iterations 8
smoothSolver:  Solving for Uy, Initial residual = 0.00129083, Final residual = 5.81032e-06, No Iterations 8
DICPCG:  Solving for p, Initial residual = 0.0994271, Final residual = 0.00464924, No Iterations 15
time step continuity errors : sum local = 8.88523e-05, global = 4.29303e-06, cumulative = 0.00254937
DICPCG:  Solving for p, Initial residual = 0.00937126, Final residual = 8.4665e-07, No Iterations 47
time step continuity errors : sum local = 1.71848e-08, global = 4.59401e-10, cumulative = 0.00254937
ExecutionTime = 4.83 s  ClockTime = 26 s

Time = 0.993

Courant Number mean: 0.835633 max: 1.58536
smoothSolver:  Solving for Ux, Initial residual = 0.00454676, Final residual = 6.91046e-06, No Iterations 8
smoothSolver:  Solving for Uy, Initial residual = 0.000762288, Final residual = 5.41536e-06, No Iterations 7
DICPCG:  Solving for p, Initial residual = 0.0546098, Final residual = 0.00269527, No Iterations 10
time step continuity errors : sum local = 5.08118e-05, global = 1.52447e-05, cumulative = 0.00256462
DICPCG:  Solving for p, Initial residual = 0.00584235, Final residual = 7.34353e-07, No Iterations 45
time step continuity errors : sum local = 1.42831e-08, global = 3.73697e-10, cumulative = 0.00256462
ExecutionTime = 4.84 s  ClockTime = 26 s

Time = 0.994

Courant Number mean: 0.835635 max: 1.58548
smoothSolver:  Solving for Ux, Initial residual = 0.00401574, Final residual = 8.79798e-06, No Iterations 8
smoothSolver:  Solving for Uy, Initial residual = 0.00226608, Final residual = 5.50911e-06, No Iterations 9
DICPCG:  Solving for p, Initial residual = 0.102981, Final residual = 0.00493237, No Iterations 16
time step continuity errors : sum local = 9.20067e-05, global = -1.9491e-05, cumulative = 0.00254513
DICPCG:  Solving for p, Initial residual = 0.00873588, Final residual = 7.11462e-07, No Iterations 46
time step continuity errors : sum local = 1.43455e-08, global = -2.61346e-10, cumulative = 0.00254513
ExecutionTime = 4.84 s  ClockTime = 26 s

Time = 0.995

Courant Number mean: 0.835628 max: 1.58516
smoothSolver:  Solving for Ux, Initial residual = 0.00422057, Final residual = 8.18594e-06, No Iterations 8
smoothSolver:  Solving for Uy, Initial residual = 0.00282445, Final residual = 7.02546e-06, No Iterations 9
DICPCG:  Solving for p, Initial residual = 0.051791, Final residual = 0.00246623, No Iterations 27
time step continuity errors : sum local = 4.9845e-05, global = -3.40643e-07, cumulative = 0.00254479
DICPCG:  Solving for p, Initial residual = 0.01307, Final residual = 7.11471e-07, No Iterations 48
time step continuity errors : sum local = 9.55066e-09, global = 3.34889e-10, cumulative = 0.00254479
ExecutionTime = 4.84 s  ClockTime = 26 s

Time = 0.996

Courant Number mean: 0.835628 max: 1.58563
smoothSolver:  Solving for Ux, Initial residual = 0.00735918, Final residual = 8.64764e-06, No Iterations 10
smoothSolver:  Solving for Uy, Initial residual = 0.000563033, Final residual = 9.2738e-06, No Iterations 6
DICPCG:  Solving for p, Initial residual = 0.0990088, Final residual = 0.00473058, No Iterations 16
time step continuity errors : sum local = 9.24467e-05, global = 1.65666e-05, cumulative = 0.00256135
DICPCG:  Solving for p, Initial residual = 0.00951977, Final residual = 9.55208e-07, No Iterations 46
time step continuity errors : sum local = 1.94027e-08, global = -4.45052e-10, cumulative = 0.00256135
ExecutionTime = 4.85 s  ClockTime = 26 s

Time = 0.997

Courant Number mean: 0.835639 max: 1.58568
smoothSolver:  Solving for Ux, Initial residual = 0.0048843, Final residual = 7.52465e-06, No Iterations 9
smoothSolver:  Solving for Uy, Initial residual = 0.00225222, Final residual = 5.43495e-06, No Iterations 9
DICPCG:  Solving for p, Initial residual = 0.0593181, Final residual = 0.00270546, No Iterations 27
time step continuity errors : sum local = 4.80472e-05, global = -8.51731e-07, cumulative = 0.0025605
DICPCG:  Solving for p, Initial residual = 0.00739957, Final residual = 8.53659e-07, No Iterations 47
time step continuity errors : sum local = 1.85489e-08, global = 6.37153e-10, cumulative = 0.0025605
ExecutionTime = 4.85 s  ClockTime = 26 s

Time = 0.998

Courant Number mean: 0.835632 max: 1.58539
smoothSolver:  Solving for Ux, Initial residual = 0.00610155, Final residual = 9.31119e-06, No Iterations 9
smoothSolver:  Solving for Uy, Initial residual = 0.000503674, Final residual = 8.12987e-06, No Iterations 6
DICPCG:  Solving for p, Initial residual = 0.0963576, Final residual = 0.00480395, No Iterations 27
time step continuity errors : sum local = 9.57929e-05, global = 1.75419e-06, cumulative = 0.00256226
DICPCG:  Solving for p, Initial residual = 0.0116496, Final residual = 6.91192e-07, No Iterations 48
time step continuity errors : sum local = 1.20805e-08, global = 4.67182e-10, cumulative = 0.00256226
ExecutionTime = 4.85 s  ClockTime = 26 s

Time = 0.999

Courant Number mean: 0.835633 max: 1.58545
smoothSolver:  Solving for Ux, Initial residual = 0.00828835, Final residual = 7.44275e-06, No Iterations 10
smoothSolver:  Solving for Uy, Initial residual = 0.00040155, Final residual = 9.08644e-06, No Iterations 5
DICPCG:  Solving for p, Initial residual = 0.0986944, Final residual = 0.00484802, No Iterations 17
time step continuity errors : sum local = 9.53335e-05, global = 1.91136e-05, cumulative = 0.00258137
DICPCG:  Solving for p, Initial residual = 0.0107409, Final residual = 8.05359e-07, No Iterations 47
time step continuity errors : sum local = 1.63171e-08, global = -7.59487e-12, cumulative = 0.00258137
ExecutionTime = 4.85 s  ClockTime = 26 s

Time = 1

Courant Number mean: 0.835641 max: 1.58553
smoothSolver:  Solving for Ux, Initial residual = 0.00606832, Final residual = 6.12833e-06, No Iterations 9
smoothSolver:  Solving for Uy, Initial residual = 0.00284296, Final residual = 6.97888e-06, No Iterations 9
DICPCG:  Solving for p, Initial residual = 0.0610083, Final residual = 0.00186107, No Iterations 28
time step continuity errors : sum local = 3.25041e-05, global = -3.36135e-07, cumulative = 0.00258103
DICPCG:  Solving for p, Initial residual = 0.00748708, Final residual = 6.93445e-07, No Iterations 47
time step continuity errors : sum local = 1.57681e-08, global = -1.14951e-10, cumulative = 0.00258103
ExecutionTime = 4.87 s  ClockTime = 26 s

End

